
---------- Begin Simulation Statistics ----------
simSeconds                                   7.314134                       # Number of seconds simulated (Second)
simTicks                                 7314134138739                       # Number of ticks simulated (Tick)
finalTick                                28141480899451                       # Number of ticks from beginning of simulation (restored from checkpoints and never reset) (Tick)
simFreq                                  1000000000000                       # The number of ticks per simulated second ((Tick/Second))
hostSeconds                                   8543.70                       # Real time elapsed on the host (Second)
hostTickRate                                856085405                       # The number of ticks simulated per host second (ticks/s) ((Tick/Second))
hostMemory                                    3934396                       # Number of bytes of host memory used (Byte)
simInsts                                   3293518460                       # Number of instructions simulated (Count)
simOps                                     6334178061                       # Number of ops (including micro ops) simulated (Count)
hostInstRate                                   385491                       # Simulator instruction rate (inst/s) ((Count/Second))
hostOpRate                                     741386                       # Simulator op (including micro ops) rate (op/s) ((Count/Second))
board.apicbridge.power_state.pwrStateResidencyTicks::UNDEFINED 28141480899451                       # Cumulative time (in ticks) in various power states (Tick)
board.bridge.power_state.pwrStateResidencyTicks::UNDEFINED 28141480899451                       # Cumulative time (in ticks) in various power states (Tick)
board.cache_hierarchy.iocache.demandMisses::pc.south_bridge.ide      1220395                       # number of demand (read+write) misses (Count)
board.cache_hierarchy.iocache.demandMisses::total      1220395                       # number of demand (read+write) misses (Count)
board.cache_hierarchy.iocache.overallMisses::pc.south_bridge.ide      1220395                       # number of overall misses (Count)
board.cache_hierarchy.iocache.overallMisses::total      1220395                       # number of overall misses (Count)
board.cache_hierarchy.iocache.demandMissLatency::pc.south_bridge.ide  93297661097                       # number of demand (read+write) miss ticks (Tick)
board.cache_hierarchy.iocache.demandMissLatency::total  93297661097                       # number of demand (read+write) miss ticks (Tick)
board.cache_hierarchy.iocache.overallMissLatency::pc.south_bridge.ide  93297661097                       # number of overall miss ticks (Tick)
board.cache_hierarchy.iocache.overallMissLatency::total  93297661097                       # number of overall miss ticks (Tick)
board.cache_hierarchy.iocache.demandAccesses::pc.south_bridge.ide      1220395                       # number of demand (read+write) accesses (Count)
board.cache_hierarchy.iocache.demandAccesses::total      1220395                       # number of demand (read+write) accesses (Count)
board.cache_hierarchy.iocache.overallAccesses::pc.south_bridge.ide      1220395                       # number of overall (read+write) accesses (Count)
board.cache_hierarchy.iocache.overallAccesses::total      1220395                       # number of overall (read+write) accesses (Count)
board.cache_hierarchy.iocache.demandMissRate::pc.south_bridge.ide            1                       # miss rate for demand accesses (Ratio)
board.cache_hierarchy.iocache.demandMissRate::total            1                       # miss rate for demand accesses (Ratio)
board.cache_hierarchy.iocache.overallMissRate::pc.south_bridge.ide            1                       # miss rate for overall accesses (Ratio)
board.cache_hierarchy.iocache.overallMissRate::total            1                       # miss rate for overall accesses (Ratio)
board.cache_hierarchy.iocache.demandAvgMissLatency::pc.south_bridge.ide 76448.740856                       # average overall miss latency in ticks ((Tick/Count))
board.cache_hierarchy.iocache.demandAvgMissLatency::total 76448.740856                       # average overall miss latency in ticks ((Tick/Count))
board.cache_hierarchy.iocache.overallAvgMissLatency::pc.south_bridge.ide 76448.740856                       # average overall miss latency ((Tick/Count))
board.cache_hierarchy.iocache.overallAvgMissLatency::total 76448.740856                       # average overall miss latency ((Tick/Count))
board.cache_hierarchy.iocache.blockedCycles::no_mshrs            0                       # number of cycles access was blocked (Cycle)
board.cache_hierarchy.iocache.blockedCycles::no_wbuffers      1479791                       # number of cycles access was blocked (Cycle)
board.cache_hierarchy.iocache.blockedCycles::no_targets            0                       # number of cycles access was blocked (Cycle)
board.cache_hierarchy.iocache.blockedCauses::no_mshrs            0                       # number of times access was blocked (Count)
board.cache_hierarchy.iocache.blockedCauses::no_wbuffers       102336                       # number of times access was blocked (Count)
board.cache_hierarchy.iocache.blockedCauses::no_targets            0                       # number of times access was blocked (Count)
board.cache_hierarchy.iocache.avgBlocked::no_mshrs          nan                       # average number of cycles each access was blocked ((Cycle/Count))
board.cache_hierarchy.iocache.avgBlocked::no_wbuffers    14.460122                       # average number of cycles each access was blocked ((Cycle/Count))
board.cache_hierarchy.iocache.avgBlocked::no_targets          nan                       # average number of cycles each access was blocked ((Cycle/Count))
board.cache_hierarchy.iocache.writebacks::writebacks       331760                       # number of writebacks (Count)
board.cache_hierarchy.iocache.writebacks::total       331760                       # number of writebacks (Count)
board.cache_hierarchy.iocache.demandMshrMisses::pc.south_bridge.ide      1220395                       # number of demand (read+write) MSHR misses (Count)
board.cache_hierarchy.iocache.demandMshrMisses::total      1220395                       # number of demand (read+write) MSHR misses (Count)
board.cache_hierarchy.iocache.overallMshrMisses::pc.south_bridge.ide      1220395                       # number of overall MSHR misses (Count)
board.cache_hierarchy.iocache.overallMshrMisses::total      1220395                       # number of overall MSHR misses (Count)
board.cache_hierarchy.iocache.demandMshrMissLatency::pc.south_bridge.ide  72978080322                       # number of demand (read+write) MSHR miss ticks (Tick)
board.cache_hierarchy.iocache.demandMshrMissLatency::total  72978080322                       # number of demand (read+write) MSHR miss ticks (Tick)
board.cache_hierarchy.iocache.overallMshrMissLatency::pc.south_bridge.ide  72978080322                       # number of overall MSHR miss ticks (Tick)
board.cache_hierarchy.iocache.overallMshrMissLatency::total  72978080322                       # number of overall MSHR miss ticks (Tick)
board.cache_hierarchy.iocache.demandMshrMissRate::pc.south_bridge.ide            1                       # mshr miss ratio for demand accesses (Ratio)
board.cache_hierarchy.iocache.demandMshrMissRate::total            1                       # mshr miss ratio for demand accesses (Ratio)
board.cache_hierarchy.iocache.overallMshrMissRate::pc.south_bridge.ide            1                       # mshr miss ratio for overall accesses (Ratio)
board.cache_hierarchy.iocache.overallMshrMissRate::total            1                       # mshr miss ratio for overall accesses (Ratio)
board.cache_hierarchy.iocache.demandAvgMshrMissLatency::pc.south_bridge.ide 59798.737558                       # average overall mshr miss latency ((Tick/Count))
board.cache_hierarchy.iocache.demandAvgMshrMissLatency::total 59798.737558                       # average overall mshr miss latency ((Tick/Count))
board.cache_hierarchy.iocache.overallAvgMshrMissLatency::pc.south_bridge.ide 59798.737558                       # average overall mshr miss latency ((Tick/Count))
board.cache_hierarchy.iocache.overallAvgMshrMissLatency::total 59798.737558                       # average overall mshr miss latency ((Tick/Count))
board.cache_hierarchy.iocache.replacements      1220376                       # number of replacements (Count)
board.cache_hierarchy.iocache.ReadReq.misses::pc.south_bridge.ide       888619                       # number of ReadReq misses (Count)
board.cache_hierarchy.iocache.ReadReq.misses::total       888619                       # number of ReadReq misses (Count)
board.cache_hierarchy.iocache.ReadReq.missLatency::pc.south_bridge.ide  79724909148                       # number of ReadReq miss ticks (Tick)
board.cache_hierarchy.iocache.ReadReq.missLatency::total  79724909148                       # number of ReadReq miss ticks (Tick)
board.cache_hierarchy.iocache.ReadReq.accesses::pc.south_bridge.ide       888619                       # number of ReadReq accesses(hits+misses) (Count)
board.cache_hierarchy.iocache.ReadReq.accesses::total       888619                       # number of ReadReq accesses(hits+misses) (Count)
board.cache_hierarchy.iocache.ReadReq.missRate::pc.south_bridge.ide            1                       # miss rate for ReadReq accesses (Ratio)
board.cache_hierarchy.iocache.ReadReq.missRate::total            1                       # miss rate for ReadReq accesses (Ratio)
board.cache_hierarchy.iocache.ReadReq.avgMissLatency::pc.south_bridge.ide 89717.763347                       # average ReadReq miss latency ((Tick/Count))
board.cache_hierarchy.iocache.ReadReq.avgMissLatency::total 89717.763347                       # average ReadReq miss latency ((Tick/Count))
board.cache_hierarchy.iocache.ReadReq.mshrMisses::pc.south_bridge.ide       888619                       # number of ReadReq MSHR misses (Count)
board.cache_hierarchy.iocache.ReadReq.mshrMisses::total       888619                       # number of ReadReq MSHR misses (Count)
board.cache_hierarchy.iocache.ReadReq.mshrMissLatency::pc.south_bridge.ide  64929402798                       # number of ReadReq MSHR miss ticks (Tick)
board.cache_hierarchy.iocache.ReadReq.mshrMissLatency::total  64929402798                       # number of ReadReq MSHR miss ticks (Tick)
board.cache_hierarchy.iocache.ReadReq.mshrMissRate::pc.south_bridge.ide            1                       # mshr miss rate for ReadReq accesses (Ratio)
board.cache_hierarchy.iocache.ReadReq.mshrMissRate::total            1                       # mshr miss rate for ReadReq accesses (Ratio)
board.cache_hierarchy.iocache.ReadReq.avgMshrMissLatency::pc.south_bridge.ide 73067.763347                       # average ReadReq mshr miss latency ((Tick/Count))
board.cache_hierarchy.iocache.ReadReq.avgMshrMissLatency::total 73067.763347                       # average ReadReq mshr miss latency ((Tick/Count))
board.cache_hierarchy.iocache.WriteLineReq.misses::pc.south_bridge.ide       331776                       # number of WriteLineReq misses (Count)
board.cache_hierarchy.iocache.WriteLineReq.misses::total       331776                       # number of WriteLineReq misses (Count)
board.cache_hierarchy.iocache.WriteLineReq.missLatency::pc.south_bridge.ide  13572751949                       # number of WriteLineReq miss ticks (Tick)
board.cache_hierarchy.iocache.WriteLineReq.missLatency::total  13572751949                       # number of WriteLineReq miss ticks (Tick)
board.cache_hierarchy.iocache.WriteLineReq.accesses::pc.south_bridge.ide       331776                       # number of WriteLineReq accesses(hits+misses) (Count)
board.cache_hierarchy.iocache.WriteLineReq.accesses::total       331776                       # number of WriteLineReq accesses(hits+misses) (Count)
board.cache_hierarchy.iocache.WriteLineReq.missRate::pc.south_bridge.ide            1                       # miss rate for WriteLineReq accesses (Ratio)
board.cache_hierarchy.iocache.WriteLineReq.missRate::total            1                       # miss rate for WriteLineReq accesses (Ratio)
board.cache_hierarchy.iocache.WriteLineReq.avgMissLatency::pc.south_bridge.ide 40909.384491                       # average WriteLineReq miss latency ((Tick/Count))
board.cache_hierarchy.iocache.WriteLineReq.avgMissLatency::total 40909.384491                       # average WriteLineReq miss latency ((Tick/Count))
board.cache_hierarchy.iocache.WriteLineReq.mshrMisses::pc.south_bridge.ide       331776                       # number of WriteLineReq MSHR misses (Count)
board.cache_hierarchy.iocache.WriteLineReq.mshrMisses::total       331776                       # number of WriteLineReq MSHR misses (Count)
board.cache_hierarchy.iocache.WriteLineReq.mshrMissLatency::pc.south_bridge.ide   8048677524                       # number of WriteLineReq MSHR miss ticks (Tick)
board.cache_hierarchy.iocache.WriteLineReq.mshrMissLatency::total   8048677524                       # number of WriteLineReq MSHR miss ticks (Tick)
board.cache_hierarchy.iocache.WriteLineReq.mshrMissRate::pc.south_bridge.ide            1                       # mshr miss rate for WriteLineReq accesses (Ratio)
board.cache_hierarchy.iocache.WriteLineReq.mshrMissRate::total            1                       # mshr miss rate for WriteLineReq accesses (Ratio)
board.cache_hierarchy.iocache.WriteLineReq.avgMshrMissLatency::pc.south_bridge.ide 24259.372360                       # average WriteLineReq mshr miss latency ((Tick/Count))
board.cache_hierarchy.iocache.WriteLineReq.avgMshrMissLatency::total 24259.372360                       # average WriteLineReq mshr miss latency ((Tick/Count))
board.cache_hierarchy.iocache.power_state.pwrStateResidencyTicks::UNDEFINED 28141480899451                       # Cumulative time (in ticks) in various power states (Tick)
board.cache_hierarchy.iocache.tags.tagsInUse    15.985720                       # Average ticks per tags in use ((Tick/Count))
board.cache_hierarchy.iocache.tags.totalRefs      1220379                       # Total number of references to valid blocks. (Count)
board.cache_hierarchy.iocache.tags.sampledRefs      1220379                       # Sample count of references to valid blocks. (Count)
board.cache_hierarchy.iocache.tags.avgRefs            1                       # Average number of references to valid blocks. ((Count/Count))
board.cache_hierarchy.iocache.tags.warmupTick 20833838192115                       # The tick when the warmup percentage was hit. (Tick)
board.cache_hierarchy.iocache.tags.occupancies::pc.south_bridge.ide    15.985720                       # Average occupied blocks per tick, per requestor ((Count/Tick))
board.cache_hierarchy.iocache.tags.avgOccs::pc.south_bridge.ide     0.999107                       # Average percentage of cache occupancy ((Ratio/Tick))
board.cache_hierarchy.iocache.tags.avgOccs::total     0.999107                       # Average percentage of cache occupancy ((Ratio/Tick))
board.cache_hierarchy.iocache.tags.occupanciesTaskId::1023           16                       # Occupied blocks per task id (Count)
board.cache_hierarchy.iocache.tags.ageTaskId_1023::4           16                       # Occupied blocks per task id, per block age (Count)
board.cache_hierarchy.iocache.tags.ratioOccsTaskId::1023            1                       # Ratio of occupied blocks and all blocks, per task id (Ratio)
board.cache_hierarchy.iocache.tags.tagAccesses     10983555                       # Number of tag accesses (Count)
board.cache_hierarchy.iocache.tags.dataAccesses     10983555                       # Number of data accesses (Count)
board.cache_hierarchy.iocache.tags.power_state.pwrStateResidencyTicks::UNDEFINED 28141480899451                       # Cumulative time (in ticks) in various power states (Tick)
board.cache_hierarchy.l1d-cache-0.demandHits::processor.switch0.core.data    544329185                       # number of demand (read+write) hits (Count)
board.cache_hierarchy.l1d-cache-0.demandHits::total    544329185                       # number of demand (read+write) hits (Count)
board.cache_hierarchy.l1d-cache-0.overallHits::processor.switch0.core.data    545764859                       # number of overall hits (Count)
board.cache_hierarchy.l1d-cache-0.overallHits::total    545764859                       # number of overall hits (Count)
board.cache_hierarchy.l1d-cache-0.demandMisses::processor.switch0.core.data     11183193                       # number of demand (read+write) misses (Count)
board.cache_hierarchy.l1d-cache-0.demandMisses::total     11183193                       # number of demand (read+write) misses (Count)
board.cache_hierarchy.l1d-cache-0.overallMisses::processor.switch0.core.data     11268183                       # number of overall misses (Count)
board.cache_hierarchy.l1d-cache-0.overallMisses::total     11268183                       # number of overall misses (Count)
board.cache_hierarchy.l1d-cache-0.demandMissLatency::processor.switch0.core.data 143401051404                       # number of demand (read+write) miss ticks (Tick)
board.cache_hierarchy.l1d-cache-0.demandMissLatency::total 143401051404                       # number of demand (read+write) miss ticks (Tick)
board.cache_hierarchy.l1d-cache-0.overallMissLatency::processor.switch0.core.data 143401051404                       # number of overall miss ticks (Tick)
board.cache_hierarchy.l1d-cache-0.overallMissLatency::total 143401051404                       # number of overall miss ticks (Tick)
board.cache_hierarchy.l1d-cache-0.demandAccesses::processor.switch0.core.data    555512378                       # number of demand (read+write) accesses (Count)
board.cache_hierarchy.l1d-cache-0.demandAccesses::total    555512378                       # number of demand (read+write) accesses (Count)
board.cache_hierarchy.l1d-cache-0.overallAccesses::processor.switch0.core.data    557033042                       # number of overall (read+write) accesses (Count)
board.cache_hierarchy.l1d-cache-0.overallAccesses::total    557033042                       # number of overall (read+write) accesses (Count)
board.cache_hierarchy.l1d-cache-0.demandMissRate::processor.switch0.core.data     0.020131                       # miss rate for demand accesses (Ratio)
board.cache_hierarchy.l1d-cache-0.demandMissRate::total     0.020131                       # miss rate for demand accesses (Ratio)
board.cache_hierarchy.l1d-cache-0.overallMissRate::processor.switch0.core.data     0.020229                       # miss rate for overall accesses (Ratio)
board.cache_hierarchy.l1d-cache-0.overallMissRate::total     0.020229                       # miss rate for overall accesses (Ratio)
board.cache_hierarchy.l1d-cache-0.demandAvgMissLatency::processor.switch0.core.data 12822.907680                       # average overall miss latency in ticks ((Tick/Count))
board.cache_hierarchy.l1d-cache-0.demandAvgMissLatency::total 12822.907680                       # average overall miss latency in ticks ((Tick/Count))
board.cache_hierarchy.l1d-cache-0.overallAvgMissLatency::processor.switch0.core.data 12726.191206                       # average overall miss latency ((Tick/Count))
board.cache_hierarchy.l1d-cache-0.overallAvgMissLatency::total 12726.191206                       # average overall miss latency ((Tick/Count))
board.cache_hierarchy.l1d-cache-0.blockedCycles::no_mshrs            0                       # number of cycles access was blocked (Cycle)
board.cache_hierarchy.l1d-cache-0.blockedCycles::no_wbuffers            0                       # number of cycles access was blocked (Cycle)
board.cache_hierarchy.l1d-cache-0.blockedCycles::no_targets            0                       # number of cycles access was blocked (Cycle)
board.cache_hierarchy.l1d-cache-0.blockedCauses::no_mshrs            0                       # number of times access was blocked (Count)
board.cache_hierarchy.l1d-cache-0.blockedCauses::no_wbuffers            0                       # number of times access was blocked (Count)
board.cache_hierarchy.l1d-cache-0.blockedCauses::no_targets            0                       # number of times access was blocked (Count)
board.cache_hierarchy.l1d-cache-0.avgBlocked::no_mshrs          nan                       # average number of cycles each access was blocked ((Cycle/Count))
board.cache_hierarchy.l1d-cache-0.avgBlocked::no_wbuffers          nan                       # average number of cycles each access was blocked ((Cycle/Count))
board.cache_hierarchy.l1d-cache-0.avgBlocked::no_targets          nan                       # average number of cycles each access was blocked ((Cycle/Count))
board.cache_hierarchy.l1d-cache-0.writebacks::writebacks     10178111                       # number of writebacks (Count)
board.cache_hierarchy.l1d-cache-0.writebacks::total     10178111                       # number of writebacks (Count)
board.cache_hierarchy.l1d-cache-0.demandMshrHits::processor.switch0.core.data       376687                       # number of demand (read+write) MSHR hits (Count)
board.cache_hierarchy.l1d-cache-0.demandMshrHits::total       376687                       # number of demand (read+write) MSHR hits (Count)
board.cache_hierarchy.l1d-cache-0.overallMshrHits::processor.switch0.core.data       376687                       # number of overall MSHR hits (Count)
board.cache_hierarchy.l1d-cache-0.overallMshrHits::total       376687                       # number of overall MSHR hits (Count)
board.cache_hierarchy.l1d-cache-0.demandMshrMisses::processor.switch0.core.data     10806506                       # number of demand (read+write) MSHR misses (Count)
board.cache_hierarchy.l1d-cache-0.demandMshrMisses::total     10806506                       # number of demand (read+write) MSHR misses (Count)
board.cache_hierarchy.l1d-cache-0.overallMshrMisses::cache_hierarchy.l1d-cache-0.prefetcher      5401023                       # number of overall MSHR misses (Count)
board.cache_hierarchy.l1d-cache-0.overallMshrMisses::processor.switch0.core.data     10891496                       # number of overall MSHR misses (Count)
board.cache_hierarchy.l1d-cache-0.overallMshrMisses::total     16292519                       # number of overall MSHR misses (Count)
board.cache_hierarchy.l1d-cache-0.overallMshrUncacheable::processor.switch0.core.data       136721                       # number of overall MSHR uncacheable misses (Count)
board.cache_hierarchy.l1d-cache-0.overallMshrUncacheable::total       136721                       # number of overall MSHR uncacheable misses (Count)
board.cache_hierarchy.l1d-cache-0.demandMshrMissLatency::processor.switch0.core.data 135278616636                       # number of demand (read+write) MSHR miss ticks (Tick)
board.cache_hierarchy.l1d-cache-0.demandMshrMissLatency::total 135278616636                       # number of demand (read+write) MSHR miss ticks (Tick)
board.cache_hierarchy.l1d-cache-0.overallMshrMissLatency::cache_hierarchy.l1d-cache-0.prefetcher  75862015212                       # number of overall MSHR miss ticks (Tick)
board.cache_hierarchy.l1d-cache-0.overallMshrMissLatency::processor.switch0.core.data 137136529197                       # number of overall MSHR miss ticks (Tick)
board.cache_hierarchy.l1d-cache-0.overallMshrMissLatency::total 212998544409                       # number of overall MSHR miss ticks (Tick)
board.cache_hierarchy.l1d-cache-0.overallMshrUncacheableLatency::processor.switch0.core.data  19326817503                       # number of overall MSHR uncacheable ticks (Tick)
board.cache_hierarchy.l1d-cache-0.overallMshrUncacheableLatency::total  19326817503                       # number of overall MSHR uncacheable ticks (Tick)
board.cache_hierarchy.l1d-cache-0.demandMshrMissRate::processor.switch0.core.data     0.019453                       # mshr miss ratio for demand accesses (Ratio)
board.cache_hierarchy.l1d-cache-0.demandMshrMissRate::total     0.019453                       # mshr miss ratio for demand accesses (Ratio)
board.cache_hierarchy.l1d-cache-0.overallMshrMissRate::cache_hierarchy.l1d-cache-0.prefetcher          inf                       # mshr miss ratio for overall accesses (Ratio)
board.cache_hierarchy.l1d-cache-0.overallMshrMissRate::processor.switch0.core.data     0.019553                       # mshr miss ratio for overall accesses (Ratio)
board.cache_hierarchy.l1d-cache-0.overallMshrMissRate::total     0.029249                       # mshr miss ratio for overall accesses (Ratio)
board.cache_hierarchy.l1d-cache-0.demandAvgMshrMissLatency::processor.switch0.core.data 12518.256746                       # average overall mshr miss latency ((Tick/Count))
board.cache_hierarchy.l1d-cache-0.demandAvgMshrMissLatency::total 12518.256746                       # average overall mshr miss latency ((Tick/Count))
board.cache_hierarchy.l1d-cache-0.overallAvgMshrMissLatency::cache_hierarchy.l1d-cache-0.prefetcher 14045.860425                       # average overall mshr miss latency ((Tick/Count))
board.cache_hierarchy.l1d-cache-0.overallAvgMshrMissLatency::processor.switch0.core.data 12591.156366                       # average overall mshr miss latency ((Tick/Count))
board.cache_hierarchy.l1d-cache-0.overallAvgMshrMissLatency::total 13073.395490                       # average overall mshr miss latency ((Tick/Count))
board.cache_hierarchy.l1d-cache-0.overallAvgMshrUncacheableLatency::processor.switch0.core.data 141359.538791                       # average overall mshr uncacheable latency ((Tick/Count))
board.cache_hierarchy.l1d-cache-0.overallAvgMshrUncacheableLatency::total 141359.538791                       # average overall mshr uncacheable latency ((Tick/Count))
board.cache_hierarchy.l1d-cache-0.replacements     16321783                       # number of replacements (Count)
board.cache_hierarchy.l1d-cache-0.HardPFReq.mshrMisses::cache_hierarchy.l1d-cache-0.prefetcher      5401023                       # number of HardPFReq MSHR misses (Count)
board.cache_hierarchy.l1d-cache-0.HardPFReq.mshrMisses::total      5401023                       # number of HardPFReq MSHR misses (Count)
board.cache_hierarchy.l1d-cache-0.HardPFReq.mshrMissLatency::cache_hierarchy.l1d-cache-0.prefetcher  75862015212                       # number of HardPFReq MSHR miss ticks (Tick)
board.cache_hierarchy.l1d-cache-0.HardPFReq.mshrMissLatency::total  75862015212                       # number of HardPFReq MSHR miss ticks (Tick)
board.cache_hierarchy.l1d-cache-0.HardPFReq.mshrMissRate::cache_hierarchy.l1d-cache-0.prefetcher          inf                       # mshr miss rate for HardPFReq accesses (Ratio)
board.cache_hierarchy.l1d-cache-0.HardPFReq.mshrMissRate::total          inf                       # mshr miss rate for HardPFReq accesses (Ratio)
board.cache_hierarchy.l1d-cache-0.HardPFReq.avgMshrMissLatency::cache_hierarchy.l1d-cache-0.prefetcher 14045.860425                       # average HardPFReq mshr miss latency ((Tick/Count))
board.cache_hierarchy.l1d-cache-0.HardPFReq.avgMshrMissLatency::total 14045.860425                       # average HardPFReq mshr miss latency ((Tick/Count))
board.cache_hierarchy.l1d-cache-0.LockedRMWReadReq.hits::processor.switch0.core.data      1855527                       # number of LockedRMWReadReq hits (Count)
board.cache_hierarchy.l1d-cache-0.LockedRMWReadReq.hits::total      1855527                       # number of LockedRMWReadReq hits (Count)
board.cache_hierarchy.l1d-cache-0.LockedRMWReadReq.misses::processor.switch0.core.data       128997                       # number of LockedRMWReadReq misses (Count)
board.cache_hierarchy.l1d-cache-0.LockedRMWReadReq.misses::total       128997                       # number of LockedRMWReadReq misses (Count)
board.cache_hierarchy.l1d-cache-0.LockedRMWReadReq.missLatency::processor.switch0.core.data   2024104203                       # number of LockedRMWReadReq miss ticks (Tick)
board.cache_hierarchy.l1d-cache-0.LockedRMWReadReq.missLatency::total   2024104203                       # number of LockedRMWReadReq miss ticks (Tick)
board.cache_hierarchy.l1d-cache-0.LockedRMWReadReq.accesses::processor.switch0.core.data      1984524                       # number of LockedRMWReadReq accesses(hits+misses) (Count)
board.cache_hierarchy.l1d-cache-0.LockedRMWReadReq.accesses::total      1984524                       # number of LockedRMWReadReq accesses(hits+misses) (Count)
board.cache_hierarchy.l1d-cache-0.LockedRMWReadReq.missRate::processor.switch0.core.data     0.065001                       # miss rate for LockedRMWReadReq accesses (Ratio)
board.cache_hierarchy.l1d-cache-0.LockedRMWReadReq.missRate::total     0.065001                       # miss rate for LockedRMWReadReq accesses (Ratio)
board.cache_hierarchy.l1d-cache-0.LockedRMWReadReq.avgMissLatency::processor.switch0.core.data 15691.095165                       # average LockedRMWReadReq miss latency ((Tick/Count))
board.cache_hierarchy.l1d-cache-0.LockedRMWReadReq.avgMissLatency::total 15691.095165                       # average LockedRMWReadReq miss latency ((Tick/Count))
board.cache_hierarchy.l1d-cache-0.LockedRMWReadReq.mshrMisses::processor.switch0.core.data       128997                       # number of LockedRMWReadReq MSHR misses (Count)
board.cache_hierarchy.l1d-cache-0.LockedRMWReadReq.mshrMisses::total       128997                       # number of LockedRMWReadReq MSHR misses (Count)
board.cache_hierarchy.l1d-cache-0.LockedRMWReadReq.mshrUncacheable::processor.switch0.core.data           12                       # number of LockedRMWReadReq MSHR uncacheable (Count)
board.cache_hierarchy.l1d-cache-0.LockedRMWReadReq.mshrUncacheable::total           12                       # number of LockedRMWReadReq MSHR uncacheable (Count)
board.cache_hierarchy.l1d-cache-0.LockedRMWReadReq.mshrMissLatency::processor.switch0.core.data   4623142896                       # number of LockedRMWReadReq MSHR miss ticks (Tick)
board.cache_hierarchy.l1d-cache-0.LockedRMWReadReq.mshrMissLatency::total   4623142896                       # number of LockedRMWReadReq MSHR miss ticks (Tick)
board.cache_hierarchy.l1d-cache-0.LockedRMWReadReq.mshrUncacheableLatency::processor.switch0.core.data      1330668                       # number of LockedRMWReadReq MSHR uncacheable ticks (Tick)
board.cache_hierarchy.l1d-cache-0.LockedRMWReadReq.mshrUncacheableLatency::total      1330668                       # number of LockedRMWReadReq MSHR uncacheable ticks (Tick)
board.cache_hierarchy.l1d-cache-0.LockedRMWReadReq.mshrMissRate::processor.switch0.core.data     0.065001                       # mshr miss rate for LockedRMWReadReq accesses (Ratio)
board.cache_hierarchy.l1d-cache-0.LockedRMWReadReq.mshrMissRate::total     0.065001                       # mshr miss rate for LockedRMWReadReq accesses (Ratio)
board.cache_hierarchy.l1d-cache-0.LockedRMWReadReq.avgMshrMissLatency::processor.switch0.core.data 35839.150492                       # average LockedRMWReadReq mshr miss latency ((Tick/Count))
board.cache_hierarchy.l1d-cache-0.LockedRMWReadReq.avgMshrMissLatency::total 35839.150492                       # average LockedRMWReadReq mshr miss latency ((Tick/Count))
board.cache_hierarchy.l1d-cache-0.LockedRMWReadReq.avgMshrUncacheableLatency::processor.switch0.core.data       110889                       # average LockedRMWReadReq mshr uncacheable latency ((Tick/Count))
board.cache_hierarchy.l1d-cache-0.LockedRMWReadReq.avgMshrUncacheableLatency::total       110889                       # average LockedRMWReadReq mshr uncacheable latency ((Tick/Count))
board.cache_hierarchy.l1d-cache-0.LockedRMWWriteReq.hits::processor.switch0.core.data      1984524                       # number of LockedRMWWriteReq hits (Count)
board.cache_hierarchy.l1d-cache-0.LockedRMWWriteReq.hits::total      1984524                       # number of LockedRMWWriteReq hits (Count)
board.cache_hierarchy.l1d-cache-0.LockedRMWWriteReq.accesses::processor.switch0.core.data      1984524                       # number of LockedRMWWriteReq accesses(hits+misses) (Count)
board.cache_hierarchy.l1d-cache-0.LockedRMWWriteReq.accesses::total      1984524                       # number of LockedRMWWriteReq accesses(hits+misses) (Count)
board.cache_hierarchy.l1d-cache-0.ReadReq.hits::processor.switch0.core.data    321457281                       # number of ReadReq hits (Count)
board.cache_hierarchy.l1d-cache-0.ReadReq.hits::total    321457281                       # number of ReadReq hits (Count)
board.cache_hierarchy.l1d-cache-0.ReadReq.misses::processor.switch0.core.data      7729284                       # number of ReadReq misses (Count)
board.cache_hierarchy.l1d-cache-0.ReadReq.misses::total      7729284                       # number of ReadReq misses (Count)
board.cache_hierarchy.l1d-cache-0.ReadReq.missLatency::processor.switch0.core.data  97163312427                       # number of ReadReq miss ticks (Tick)
board.cache_hierarchy.l1d-cache-0.ReadReq.missLatency::total  97163312427                       # number of ReadReq miss ticks (Tick)
board.cache_hierarchy.l1d-cache-0.ReadReq.accesses::processor.switch0.core.data    329186565                       # number of ReadReq accesses(hits+misses) (Count)
board.cache_hierarchy.l1d-cache-0.ReadReq.accesses::total    329186565                       # number of ReadReq accesses(hits+misses) (Count)
board.cache_hierarchy.l1d-cache-0.ReadReq.missRate::processor.switch0.core.data     0.023480                       # miss rate for ReadReq accesses (Ratio)
board.cache_hierarchy.l1d-cache-0.ReadReq.missRate::total     0.023480                       # miss rate for ReadReq accesses (Ratio)
board.cache_hierarchy.l1d-cache-0.ReadReq.avgMissLatency::processor.switch0.core.data 12570.803767                       # average ReadReq miss latency ((Tick/Count))
board.cache_hierarchy.l1d-cache-0.ReadReq.avgMissLatency::total 12570.803767                       # average ReadReq miss latency ((Tick/Count))
board.cache_hierarchy.l1d-cache-0.ReadReq.mshrHits::processor.switch0.core.data       105969                       # number of ReadReq MSHR hits (Count)
board.cache_hierarchy.l1d-cache-0.ReadReq.mshrHits::total       105969                       # number of ReadReq MSHR hits (Count)
board.cache_hierarchy.l1d-cache-0.ReadReq.mshrMisses::processor.switch0.core.data      7623315                       # number of ReadReq MSHR misses (Count)
board.cache_hierarchy.l1d-cache-0.ReadReq.mshrMisses::total      7623315                       # number of ReadReq MSHR misses (Count)
board.cache_hierarchy.l1d-cache-0.ReadReq.mshrUncacheable::processor.switch0.core.data        92393                       # number of ReadReq MSHR uncacheable (Count)
board.cache_hierarchy.l1d-cache-0.ReadReq.mshrUncacheable::total        92393                       # number of ReadReq MSHR uncacheable (Count)
board.cache_hierarchy.l1d-cache-0.ReadReq.mshrMissLatency::processor.switch0.core.data  93458202246                       # number of ReadReq MSHR miss ticks (Tick)
board.cache_hierarchy.l1d-cache-0.ReadReq.mshrMissLatency::total  93458202246                       # number of ReadReq MSHR miss ticks (Tick)
board.cache_hierarchy.l1d-cache-0.ReadReq.mshrUncacheableLatency::processor.switch0.core.data  19326817503                       # number of ReadReq MSHR uncacheable ticks (Tick)
board.cache_hierarchy.l1d-cache-0.ReadReq.mshrUncacheableLatency::total  19326817503                       # number of ReadReq MSHR uncacheable ticks (Tick)
board.cache_hierarchy.l1d-cache-0.ReadReq.mshrMissRate::processor.switch0.core.data     0.023158                       # mshr miss rate for ReadReq accesses (Ratio)
board.cache_hierarchy.l1d-cache-0.ReadReq.mshrMissRate::total     0.023158                       # mshr miss rate for ReadReq accesses (Ratio)
board.cache_hierarchy.l1d-cache-0.ReadReq.avgMshrMissLatency::processor.switch0.core.data 12259.522563                       # average ReadReq mshr miss latency ((Tick/Count))
board.cache_hierarchy.l1d-cache-0.ReadReq.avgMshrMissLatency::total 12259.522563                       # average ReadReq mshr miss latency ((Tick/Count))
board.cache_hierarchy.l1d-cache-0.ReadReq.avgMshrUncacheableLatency::processor.switch0.core.data 209180.538601                       # average ReadReq mshr uncacheable latency ((Tick/Count))
board.cache_hierarchy.l1d-cache-0.ReadReq.avgMshrUncacheableLatency::total 209180.538601                       # average ReadReq mshr uncacheable latency ((Tick/Count))
board.cache_hierarchy.l1d-cache-0.SoftPFReq.hits::processor.switch0.core.data      1435674                       # number of SoftPFReq hits (Count)
board.cache_hierarchy.l1d-cache-0.SoftPFReq.hits::total      1435674                       # number of SoftPFReq hits (Count)
board.cache_hierarchy.l1d-cache-0.SoftPFReq.misses::processor.switch0.core.data        84990                       # number of SoftPFReq misses (Count)
board.cache_hierarchy.l1d-cache-0.SoftPFReq.misses::total        84990                       # number of SoftPFReq misses (Count)
board.cache_hierarchy.l1d-cache-0.SoftPFReq.accesses::processor.switch0.core.data      1520664                       # number of SoftPFReq accesses(hits+misses) (Count)
board.cache_hierarchy.l1d-cache-0.SoftPFReq.accesses::total      1520664                       # number of SoftPFReq accesses(hits+misses) (Count)
board.cache_hierarchy.l1d-cache-0.SoftPFReq.missRate::processor.switch0.core.data     0.055890                       # miss rate for SoftPFReq accesses (Ratio)
board.cache_hierarchy.l1d-cache-0.SoftPFReq.missRate::total     0.055890                       # miss rate for SoftPFReq accesses (Ratio)
board.cache_hierarchy.l1d-cache-0.SoftPFReq.mshrMisses::processor.switch0.core.data        84990                       # number of SoftPFReq MSHR misses (Count)
board.cache_hierarchy.l1d-cache-0.SoftPFReq.mshrMisses::total        84990                       # number of SoftPFReq MSHR misses (Count)
board.cache_hierarchy.l1d-cache-0.SoftPFReq.mshrMissLatency::processor.switch0.core.data   1857912561                       # number of SoftPFReq MSHR miss ticks (Tick)
board.cache_hierarchy.l1d-cache-0.SoftPFReq.mshrMissLatency::total   1857912561                       # number of SoftPFReq MSHR miss ticks (Tick)
board.cache_hierarchy.l1d-cache-0.SoftPFReq.mshrMissRate::processor.switch0.core.data     0.055890                       # mshr miss rate for SoftPFReq accesses (Ratio)
board.cache_hierarchy.l1d-cache-0.SoftPFReq.mshrMissRate::total     0.055890                       # mshr miss rate for SoftPFReq accesses (Ratio)
board.cache_hierarchy.l1d-cache-0.SoftPFReq.avgMshrMissLatency::processor.switch0.core.data 21860.366643                       # average SoftPFReq mshr miss latency ((Tick/Count))
board.cache_hierarchy.l1d-cache-0.SoftPFReq.avgMshrMissLatency::total 21860.366643                       # average SoftPFReq mshr miss latency ((Tick/Count))
board.cache_hierarchy.l1d-cache-0.WriteReq.hits::processor.switch0.core.data    222871904                       # number of WriteReq hits (Count)
board.cache_hierarchy.l1d-cache-0.WriteReq.hits::total    222871904                       # number of WriteReq hits (Count)
board.cache_hierarchy.l1d-cache-0.WriteReq.misses::processor.switch0.core.data      3453909                       # number of WriteReq misses (Count)
board.cache_hierarchy.l1d-cache-0.WriteReq.misses::total      3453909                       # number of WriteReq misses (Count)
board.cache_hierarchy.l1d-cache-0.WriteReq.missLatency::processor.switch0.core.data  46237738977                       # number of WriteReq miss ticks (Tick)
board.cache_hierarchy.l1d-cache-0.WriteReq.missLatency::total  46237738977                       # number of WriteReq miss ticks (Tick)
board.cache_hierarchy.l1d-cache-0.WriteReq.accesses::processor.switch0.core.data    226325813                       # number of WriteReq accesses(hits+misses) (Count)
board.cache_hierarchy.l1d-cache-0.WriteReq.accesses::total    226325813                       # number of WriteReq accesses(hits+misses) (Count)
board.cache_hierarchy.l1d-cache-0.WriteReq.missRate::processor.switch0.core.data     0.015261                       # miss rate for WriteReq accesses (Ratio)
board.cache_hierarchy.l1d-cache-0.WriteReq.missRate::total     0.015261                       # miss rate for WriteReq accesses (Ratio)
board.cache_hierarchy.l1d-cache-0.WriteReq.avgMissLatency::processor.switch0.core.data 13387.075044                       # average WriteReq miss latency ((Tick/Count))
board.cache_hierarchy.l1d-cache-0.WriteReq.avgMissLatency::total 13387.075044                       # average WriteReq miss latency ((Tick/Count))
board.cache_hierarchy.l1d-cache-0.WriteReq.mshrHits::processor.switch0.core.data       270718                       # number of WriteReq MSHR hits (Count)
board.cache_hierarchy.l1d-cache-0.WriteReq.mshrHits::total       270718                       # number of WriteReq MSHR hits (Count)
board.cache_hierarchy.l1d-cache-0.WriteReq.mshrMisses::processor.switch0.core.data      3183191                       # number of WriteReq MSHR misses (Count)
board.cache_hierarchy.l1d-cache-0.WriteReq.mshrMisses::total      3183191                       # number of WriteReq MSHR misses (Count)
board.cache_hierarchy.l1d-cache-0.WriteReq.mshrUncacheable::processor.switch0.core.data        44328                       # number of WriteReq MSHR uncacheable (Count)
board.cache_hierarchy.l1d-cache-0.WriteReq.mshrUncacheable::total        44328                       # number of WriteReq MSHR uncacheable (Count)
board.cache_hierarchy.l1d-cache-0.WriteReq.mshrMissLatency::processor.switch0.core.data  41820414390                       # number of WriteReq MSHR miss ticks (Tick)
board.cache_hierarchy.l1d-cache-0.WriteReq.mshrMissLatency::total  41820414390                       # number of WriteReq MSHR miss ticks (Tick)
board.cache_hierarchy.l1d-cache-0.WriteReq.mshrMissRate::processor.switch0.core.data     0.014065                       # mshr miss rate for WriteReq accesses (Ratio)
board.cache_hierarchy.l1d-cache-0.WriteReq.mshrMissRate::total     0.014065                       # mshr miss rate for WriteReq accesses (Ratio)
board.cache_hierarchy.l1d-cache-0.WriteReq.avgMshrMissLatency::processor.switch0.core.data 13137.890372                       # average WriteReq mshr miss latency ((Tick/Count))
board.cache_hierarchy.l1d-cache-0.WriteReq.avgMshrMissLatency::total 13137.890372                       # average WriteReq mshr miss latency ((Tick/Count))
board.cache_hierarchy.l1d-cache-0.power_state.pwrStateResidencyTicks::UNDEFINED 28141480899451                       # Cumulative time (in ticks) in various power states (Tick)
board.cache_hierarchy.l1d-cache-0.prefetcher.demandMshrMisses     10806506                       # demands not covered by prefetchs (Count)
board.cache_hierarchy.l1d-cache-0.prefetcher.pfIssued     18669151                       # number of hwpf issued (Count)
board.cache_hierarchy.l1d-cache-0.prefetcher.pfUnused       484448                       # number of HardPF blocks evicted w/o reference (Count)
board.cache_hierarchy.l1d-cache-0.prefetcher.pfUseful      4511904                       # number of useful prefetch (Count)
board.cache_hierarchy.l1d-cache-0.prefetcher.pfUsefulButMiss         1606                       # number of hit on prefetch but cache block is not in an usable state (Count)
board.cache_hierarchy.l1d-cache-0.prefetcher.accuracy     0.241677                       # accuracy of the prefetcher (Count)
board.cache_hierarchy.l1d-cache-0.prefetcher.coverage     0.294541                       # coverage brought by this prefetcher (Count)
board.cache_hierarchy.l1d-cache-0.prefetcher.pfHitInCache     10418764                       # number of prefetches hitting in cache (Count)
board.cache_hierarchy.l1d-cache-0.prefetcher.pfHitInMSHR      2849353                       # number of prefetches hitting in a MSHR (Count)
board.cache_hierarchy.l1d-cache-0.prefetcher.pfHitInWB           11                       # number of prefetches hit in the Write Buffer (Count)
board.cache_hierarchy.l1d-cache-0.prefetcher.pfLate     13268128                       # number of late prefetches (hitting in cache, MSHR or WB) (Count)
board.cache_hierarchy.l1d-cache-0.prefetcher.pfIdentified     18670844                       # number of prefetch candidates identified (Count)
board.cache_hierarchy.l1d-cache-0.prefetcher.pfBufferHit         1267                       # number of redundant prefetches already in prefetch queue (Count)
board.cache_hierarchy.l1d-cache-0.prefetcher.pfInCache            0                       # number of redundant prefetches already in cache/mshr dropped (Count)
board.cache_hierarchy.l1d-cache-0.prefetcher.pfRemovedDemand          419                       # number of prefetches dropped due to a demand for the same address (Count)
board.cache_hierarchy.l1d-cache-0.prefetcher.pfRemovedFull            0                       # number of prefetches dropped due to prefetch queue size (Count)
board.cache_hierarchy.l1d-cache-0.prefetcher.pfSpanPage      1503676                       # number of prefetches that crossed the page (Count)
board.cache_hierarchy.l1d-cache-0.prefetcher.pfUsefulSpanPage      1301178                       # number of prefetches that is useful and crossed the page (Count)
board.cache_hierarchy.l1d-cache-0.prefetcher.power_state.pwrStateResidencyTicks::UNDEFINED 28141480899451                       # Cumulative time (in ticks) in various power states (Tick)
board.cache_hierarchy.l1d-cache-0.tags.tagsInUse   506.091274                       # Average ticks per tags in use ((Tick/Count))
board.cache_hierarchy.l1d-cache-0.tags.totalRefs    565971769                       # Total number of references to valid blocks. (Count)
board.cache_hierarchy.l1d-cache-0.tags.sampledRefs     16352692                       # Sample count of references to valid blocks. (Count)
board.cache_hierarchy.l1d-cache-0.tags.avgRefs    34.610312                       # Average number of references to valid blocks. ((Count/Count))
board.cache_hierarchy.l1d-cache-0.tags.warmupTick 20833720669089                       # The tick when the warmup percentage was hit. (Tick)
board.cache_hierarchy.l1d-cache-0.tags.occupancies::cache_hierarchy.l1d-cache-0.prefetcher    52.290919                       # Average occupied blocks per tick, per requestor ((Count/Tick))
board.cache_hierarchy.l1d-cache-0.tags.occupancies::processor.switch0.core.data   453.800356                       # Average occupied blocks per tick, per requestor ((Count/Tick))
board.cache_hierarchy.l1d-cache-0.tags.avgOccs::cache_hierarchy.l1d-cache-0.prefetcher     0.102131                       # Average percentage of cache occupancy ((Ratio/Tick))
board.cache_hierarchy.l1d-cache-0.tags.avgOccs::processor.switch0.core.data     0.886329                       # Average percentage of cache occupancy ((Ratio/Tick))
board.cache_hierarchy.l1d-cache-0.tags.avgOccs::total     0.988460                       # Average percentage of cache occupancy ((Ratio/Tick))
board.cache_hierarchy.l1d-cache-0.tags.occupanciesTaskId::1022          239                       # Occupied blocks per task id (Count)
board.cache_hierarchy.l1d-cache-0.tags.occupanciesTaskId::1024          273                       # Occupied blocks per task id (Count)
board.cache_hierarchy.l1d-cache-0.tags.ageTaskId_1022::0          136                       # Occupied blocks per task id, per block age (Count)
board.cache_hierarchy.l1d-cache-0.tags.ageTaskId_1022::1          103                       # Occupied blocks per task id, per block age (Count)
board.cache_hierarchy.l1d-cache-0.tags.ageTaskId_1024::0           55                       # Occupied blocks per task id, per block age (Count)
board.cache_hierarchy.l1d-cache-0.tags.ageTaskId_1024::1          184                       # Occupied blocks per task id, per block age (Count)
board.cache_hierarchy.l1d-cache-0.tags.ageTaskId_1024::2           34                       # Occupied blocks per task id, per block age (Count)
board.cache_hierarchy.l1d-cache-0.tags.ratioOccsTaskId::1022     0.466797                       # Ratio of occupied blocks and all blocks, per task id (Ratio)
board.cache_hierarchy.l1d-cache-0.tags.ratioOccsTaskId::1024     0.533203                       # Ratio of occupied blocks and all blocks, per task id (Ratio)
board.cache_hierarchy.l1d-cache-0.tags.tagAccesses   4504369924                       # Number of tag accesses (Count)
board.cache_hierarchy.l1d-cache-0.tags.dataAccesses   4504369924                       # Number of data accesses (Count)
board.cache_hierarchy.l1d-cache-0.tags.power_state.pwrStateResidencyTicks::UNDEFINED 28141480899451                       # Cumulative time (in ticks) in various power states (Tick)
board.cache_hierarchy.l1d-cache-1.demandHits::processor.switch1.core.data    744339380                       # number of demand (read+write) hits (Count)
board.cache_hierarchy.l1d-cache-1.demandHits::total    744339380                       # number of demand (read+write) hits (Count)
board.cache_hierarchy.l1d-cache-1.overallHits::processor.switch1.core.data    746275817                       # number of overall hits (Count)
board.cache_hierarchy.l1d-cache-1.overallHits::total    746275817                       # number of overall hits (Count)
board.cache_hierarchy.l1d-cache-1.demandMisses::processor.switch1.core.data     14574703                       # number of demand (read+write) misses (Count)
board.cache_hierarchy.l1d-cache-1.demandMisses::total     14574703                       # number of demand (read+write) misses (Count)
board.cache_hierarchy.l1d-cache-1.overallMisses::processor.switch1.core.data     14688570                       # number of overall misses (Count)
board.cache_hierarchy.l1d-cache-1.overallMisses::total     14688570                       # number of overall misses (Count)
board.cache_hierarchy.l1d-cache-1.demandMissLatency::processor.switch1.core.data 194843567061                       # number of demand (read+write) miss ticks (Tick)
board.cache_hierarchy.l1d-cache-1.demandMissLatency::total 194843567061                       # number of demand (read+write) miss ticks (Tick)
board.cache_hierarchy.l1d-cache-1.overallMissLatency::processor.switch1.core.data 194843567061                       # number of overall miss ticks (Tick)
board.cache_hierarchy.l1d-cache-1.overallMissLatency::total 194843567061                       # number of overall miss ticks (Tick)
board.cache_hierarchy.l1d-cache-1.demandAccesses::processor.switch1.core.data    758914083                       # number of demand (read+write) accesses (Count)
board.cache_hierarchy.l1d-cache-1.demandAccesses::total    758914083                       # number of demand (read+write) accesses (Count)
board.cache_hierarchy.l1d-cache-1.overallAccesses::processor.switch1.core.data    760964387                       # number of overall (read+write) accesses (Count)
board.cache_hierarchy.l1d-cache-1.overallAccesses::total    760964387                       # number of overall (read+write) accesses (Count)
board.cache_hierarchy.l1d-cache-1.demandMissRate::processor.switch1.core.data     0.019205                       # miss rate for demand accesses (Ratio)
board.cache_hierarchy.l1d-cache-1.demandMissRate::total     0.019205                       # miss rate for demand accesses (Ratio)
board.cache_hierarchy.l1d-cache-1.overallMissRate::processor.switch1.core.data     0.019303                       # miss rate for overall accesses (Ratio)
board.cache_hierarchy.l1d-cache-1.overallMissRate::total     0.019303                       # miss rate for overall accesses (Ratio)
board.cache_hierarchy.l1d-cache-1.demandAvgMissLatency::processor.switch1.core.data 13368.613210                       # average overall miss latency in ticks ((Tick/Count))
board.cache_hierarchy.l1d-cache-1.demandAvgMissLatency::total 13368.613210                       # average overall miss latency in ticks ((Tick/Count))
board.cache_hierarchy.l1d-cache-1.overallAvgMissLatency::processor.switch1.core.data 13264.978624                       # average overall miss latency ((Tick/Count))
board.cache_hierarchy.l1d-cache-1.overallAvgMissLatency::total 13264.978624                       # average overall miss latency ((Tick/Count))
board.cache_hierarchy.l1d-cache-1.blockedCycles::no_mshrs            0                       # number of cycles access was blocked (Cycle)
board.cache_hierarchy.l1d-cache-1.blockedCycles::no_wbuffers            0                       # number of cycles access was blocked (Cycle)
board.cache_hierarchy.l1d-cache-1.blockedCycles::no_targets            0                       # number of cycles access was blocked (Cycle)
board.cache_hierarchy.l1d-cache-1.blockedCauses::no_mshrs            0                       # number of times access was blocked (Count)
board.cache_hierarchy.l1d-cache-1.blockedCauses::no_wbuffers            0                       # number of times access was blocked (Count)
board.cache_hierarchy.l1d-cache-1.blockedCauses::no_targets            0                       # number of times access was blocked (Count)
board.cache_hierarchy.l1d-cache-1.avgBlocked::no_mshrs          nan                       # average number of cycles each access was blocked ((Cycle/Count))
board.cache_hierarchy.l1d-cache-1.avgBlocked::no_wbuffers          nan                       # average number of cycles each access was blocked ((Cycle/Count))
board.cache_hierarchy.l1d-cache-1.avgBlocked::no_targets          nan                       # average number of cycles each access was blocked ((Cycle/Count))
board.cache_hierarchy.l1d-cache-1.writebacks::writebacks     11029282                       # number of writebacks (Count)
board.cache_hierarchy.l1d-cache-1.writebacks::total     11029282                       # number of writebacks (Count)
board.cache_hierarchy.l1d-cache-1.demandMshrHits::processor.switch1.core.data       477004                       # number of demand (read+write) MSHR hits (Count)
board.cache_hierarchy.l1d-cache-1.demandMshrHits::total       477004                       # number of demand (read+write) MSHR hits (Count)
board.cache_hierarchy.l1d-cache-1.overallMshrHits::processor.switch1.core.data       477004                       # number of overall MSHR hits (Count)
board.cache_hierarchy.l1d-cache-1.overallMshrHits::total       477004                       # number of overall MSHR hits (Count)
board.cache_hierarchy.l1d-cache-1.demandMshrMisses::processor.switch1.core.data     14097699                       # number of demand (read+write) MSHR misses (Count)
board.cache_hierarchy.l1d-cache-1.demandMshrMisses::total     14097699                       # number of demand (read+write) MSHR misses (Count)
board.cache_hierarchy.l1d-cache-1.overallMshrMisses::cache_hierarchy.l1d-cache-1.prefetcher      5444413                       # number of overall MSHR misses (Count)
board.cache_hierarchy.l1d-cache-1.overallMshrMisses::processor.switch1.core.data     14211566                       # number of overall MSHR misses (Count)
board.cache_hierarchy.l1d-cache-1.overallMshrMisses::total     19655979                       # number of overall MSHR misses (Count)
board.cache_hierarchy.l1d-cache-1.overallMshrUncacheable::processor.switch1.core.data        29304                       # number of overall MSHR uncacheable misses (Count)
board.cache_hierarchy.l1d-cache-1.overallMshrUncacheable::total        29304                       # number of overall MSHR uncacheable misses (Count)
board.cache_hierarchy.l1d-cache-1.demandMshrMissLatency::processor.switch1.core.data 184523973984                       # number of demand (read+write) MSHR miss ticks (Tick)
board.cache_hierarchy.l1d-cache-1.demandMshrMissLatency::total 184523973984                       # number of demand (read+write) MSHR miss ticks (Tick)
board.cache_hierarchy.l1d-cache-1.overallMshrMissLatency::cache_hierarchy.l1d-cache-1.prefetcher  98792794685                       # number of overall MSHR miss ticks (Tick)
board.cache_hierarchy.l1d-cache-1.overallMshrMissLatency::processor.switch1.core.data 185710860909                       # number of overall MSHR miss ticks (Tick)
board.cache_hierarchy.l1d-cache-1.overallMshrMissLatency::total 284503655594                       # number of overall MSHR miss ticks (Tick)
board.cache_hierarchy.l1d-cache-1.overallMshrUncacheableLatency::processor.switch1.core.data   1521626850                       # number of overall MSHR uncacheable ticks (Tick)
board.cache_hierarchy.l1d-cache-1.overallMshrUncacheableLatency::total   1521626850                       # number of overall MSHR uncacheable ticks (Tick)
board.cache_hierarchy.l1d-cache-1.demandMshrMissRate::processor.switch1.core.data     0.018576                       # mshr miss ratio for demand accesses (Ratio)
board.cache_hierarchy.l1d-cache-1.demandMshrMissRate::total     0.018576                       # mshr miss ratio for demand accesses (Ratio)
board.cache_hierarchy.l1d-cache-1.overallMshrMissRate::cache_hierarchy.l1d-cache-1.prefetcher          inf                       # mshr miss ratio for overall accesses (Ratio)
board.cache_hierarchy.l1d-cache-1.overallMshrMissRate::processor.switch1.core.data     0.018676                       # mshr miss ratio for overall accesses (Ratio)
board.cache_hierarchy.l1d-cache-1.overallMshrMissRate::total     0.025830                       # mshr miss ratio for overall accesses (Ratio)
board.cache_hierarchy.l1d-cache-1.demandAvgMshrMissLatency::processor.switch1.core.data 13088.942670                       # average overall mshr miss latency ((Tick/Count))
board.cache_hierarchy.l1d-cache-1.demandAvgMshrMissLatency::total 13088.942670                       # average overall mshr miss latency ((Tick/Count))
board.cache_hierarchy.l1d-cache-1.overallAvgMshrMissLatency::cache_hierarchy.l1d-cache-1.prefetcher 18145.720151                       # average overall mshr miss latency ((Tick/Count))
board.cache_hierarchy.l1d-cache-1.overallAvgMshrMissLatency::processor.switch1.core.data 13067.586001                       # average overall mshr miss latency ((Tick/Count))
board.cache_hierarchy.l1d-cache-1.overallAvgMshrMissLatency::total 14474.153416                       # average overall mshr miss latency ((Tick/Count))
board.cache_hierarchy.l1d-cache-1.overallAvgMshrUncacheableLatency::processor.switch1.core.data 51925.568182                       # average overall mshr uncacheable latency ((Tick/Count))
board.cache_hierarchy.l1d-cache-1.overallAvgMshrUncacheableLatency::total 51925.568182                       # average overall mshr uncacheable latency ((Tick/Count))
board.cache_hierarchy.l1d-cache-1.replacements     19831195                       # number of replacements (Count)
board.cache_hierarchy.l1d-cache-1.HardPFReq.mshrMisses::cache_hierarchy.l1d-cache-1.prefetcher      5444413                       # number of HardPFReq MSHR misses (Count)
board.cache_hierarchy.l1d-cache-1.HardPFReq.mshrMisses::total      5444413                       # number of HardPFReq MSHR misses (Count)
board.cache_hierarchy.l1d-cache-1.HardPFReq.mshrMissLatency::cache_hierarchy.l1d-cache-1.prefetcher  98792794685                       # number of HardPFReq MSHR miss ticks (Tick)
board.cache_hierarchy.l1d-cache-1.HardPFReq.mshrMissLatency::total  98792794685                       # number of HardPFReq MSHR miss ticks (Tick)
board.cache_hierarchy.l1d-cache-1.HardPFReq.mshrMissRate::cache_hierarchy.l1d-cache-1.prefetcher          inf                       # mshr miss rate for HardPFReq accesses (Ratio)
board.cache_hierarchy.l1d-cache-1.HardPFReq.mshrMissRate::total          inf                       # mshr miss rate for HardPFReq accesses (Ratio)
board.cache_hierarchy.l1d-cache-1.HardPFReq.avgMshrMissLatency::cache_hierarchy.l1d-cache-1.prefetcher 18145.720151                       # average HardPFReq mshr miss latency ((Tick/Count))
board.cache_hierarchy.l1d-cache-1.HardPFReq.avgMshrMissLatency::total 18145.720151                       # average HardPFReq mshr miss latency ((Tick/Count))
board.cache_hierarchy.l1d-cache-1.LockedRMWReadReq.hits::processor.switch1.core.data      2114047                       # number of LockedRMWReadReq hits (Count)
board.cache_hierarchy.l1d-cache-1.LockedRMWReadReq.hits::total      2114047                       # number of LockedRMWReadReq hits (Count)
board.cache_hierarchy.l1d-cache-1.LockedRMWReadReq.misses::processor.switch1.core.data       280446                       # number of LockedRMWReadReq misses (Count)
board.cache_hierarchy.l1d-cache-1.LockedRMWReadReq.misses::total       280446                       # number of LockedRMWReadReq misses (Count)
board.cache_hierarchy.l1d-cache-1.LockedRMWReadReq.missLatency::processor.switch1.core.data   3577334418                       # number of LockedRMWReadReq miss ticks (Tick)
board.cache_hierarchy.l1d-cache-1.LockedRMWReadReq.missLatency::total   3577334418                       # number of LockedRMWReadReq miss ticks (Tick)
board.cache_hierarchy.l1d-cache-1.LockedRMWReadReq.accesses::processor.switch1.core.data      2394493                       # number of LockedRMWReadReq accesses(hits+misses) (Count)
board.cache_hierarchy.l1d-cache-1.LockedRMWReadReq.accesses::total      2394493                       # number of LockedRMWReadReq accesses(hits+misses) (Count)
board.cache_hierarchy.l1d-cache-1.LockedRMWReadReq.missRate::processor.switch1.core.data     0.117121                       # miss rate for LockedRMWReadReq accesses (Ratio)
board.cache_hierarchy.l1d-cache-1.LockedRMWReadReq.missRate::total     0.117121                       # miss rate for LockedRMWReadReq accesses (Ratio)
board.cache_hierarchy.l1d-cache-1.LockedRMWReadReq.avgMissLatency::processor.switch1.core.data 12755.876062                       # average LockedRMWReadReq miss latency ((Tick/Count))
board.cache_hierarchy.l1d-cache-1.LockedRMWReadReq.avgMissLatency::total 12755.876062                       # average LockedRMWReadReq miss latency ((Tick/Count))
board.cache_hierarchy.l1d-cache-1.LockedRMWReadReq.mshrMisses::processor.switch1.core.data       280446                       # number of LockedRMWReadReq MSHR misses (Count)
board.cache_hierarchy.l1d-cache-1.LockedRMWReadReq.mshrMisses::total       280446                       # number of LockedRMWReadReq MSHR misses (Count)
board.cache_hierarchy.l1d-cache-1.LockedRMWReadReq.mshrUncacheable::processor.switch1.core.data            8                       # number of LockedRMWReadReq MSHR uncacheable (Count)
board.cache_hierarchy.l1d-cache-1.LockedRMWReadReq.mshrUncacheable::total            8                       # number of LockedRMWReadReq MSHR uncacheable (Count)
board.cache_hierarchy.l1d-cache-1.LockedRMWReadReq.mshrMissLatency::processor.switch1.core.data   7765257969                       # number of LockedRMWReadReq MSHR miss ticks (Tick)
board.cache_hierarchy.l1d-cache-1.LockedRMWReadReq.mshrMissLatency::total   7765257969                       # number of LockedRMWReadReq MSHR miss ticks (Tick)
board.cache_hierarchy.l1d-cache-1.LockedRMWReadReq.mshrUncacheableLatency::processor.switch1.core.data       887112                       # number of LockedRMWReadReq MSHR uncacheable ticks (Tick)
board.cache_hierarchy.l1d-cache-1.LockedRMWReadReq.mshrUncacheableLatency::total       887112                       # number of LockedRMWReadReq MSHR uncacheable ticks (Tick)
board.cache_hierarchy.l1d-cache-1.LockedRMWReadReq.mshrMissRate::processor.switch1.core.data     0.117121                       # mshr miss rate for LockedRMWReadReq accesses (Ratio)
board.cache_hierarchy.l1d-cache-1.LockedRMWReadReq.mshrMissRate::total     0.117121                       # mshr miss rate for LockedRMWReadReq accesses (Ratio)
board.cache_hierarchy.l1d-cache-1.LockedRMWReadReq.avgMshrMissLatency::processor.switch1.core.data 27688.959618                       # average LockedRMWReadReq mshr miss latency ((Tick/Count))
board.cache_hierarchy.l1d-cache-1.LockedRMWReadReq.avgMshrMissLatency::total 27688.959618                       # average LockedRMWReadReq mshr miss latency ((Tick/Count))
board.cache_hierarchy.l1d-cache-1.LockedRMWReadReq.avgMshrUncacheableLatency::processor.switch1.core.data       110889                       # average LockedRMWReadReq mshr uncacheable latency ((Tick/Count))
board.cache_hierarchy.l1d-cache-1.LockedRMWReadReq.avgMshrUncacheableLatency::total       110889                       # average LockedRMWReadReq mshr uncacheable latency ((Tick/Count))
board.cache_hierarchy.l1d-cache-1.LockedRMWWriteReq.hits::processor.switch1.core.data      2394493                       # number of LockedRMWWriteReq hits (Count)
board.cache_hierarchy.l1d-cache-1.LockedRMWWriteReq.hits::total      2394493                       # number of LockedRMWWriteReq hits (Count)
board.cache_hierarchy.l1d-cache-1.LockedRMWWriteReq.accesses::processor.switch1.core.data      2394493                       # number of LockedRMWWriteReq accesses(hits+misses) (Count)
board.cache_hierarchy.l1d-cache-1.LockedRMWWriteReq.accesses::total      2394493                       # number of LockedRMWWriteReq accesses(hits+misses) (Count)
board.cache_hierarchy.l1d-cache-1.ReadReq.hits::processor.switch1.core.data    435437569                       # number of ReadReq hits (Count)
board.cache_hierarchy.l1d-cache-1.ReadReq.hits::total    435437569                       # number of ReadReq hits (Count)
board.cache_hierarchy.l1d-cache-1.ReadReq.misses::processor.switch1.core.data     10346107                       # number of ReadReq misses (Count)
board.cache_hierarchy.l1d-cache-1.ReadReq.misses::total     10346107                       # number of ReadReq misses (Count)
board.cache_hierarchy.l1d-cache-1.ReadReq.missLatency::processor.switch1.core.data 127645556337                       # number of ReadReq miss ticks (Tick)
board.cache_hierarchy.l1d-cache-1.ReadReq.missLatency::total 127645556337                       # number of ReadReq miss ticks (Tick)
board.cache_hierarchy.l1d-cache-1.ReadReq.accesses::processor.switch1.core.data    445783676                       # number of ReadReq accesses(hits+misses) (Count)
board.cache_hierarchy.l1d-cache-1.ReadReq.accesses::total    445783676                       # number of ReadReq accesses(hits+misses) (Count)
board.cache_hierarchy.l1d-cache-1.ReadReq.missRate::processor.switch1.core.data     0.023209                       # miss rate for ReadReq accesses (Ratio)
board.cache_hierarchy.l1d-cache-1.ReadReq.missRate::total     0.023209                       # miss rate for ReadReq accesses (Ratio)
board.cache_hierarchy.l1d-cache-1.ReadReq.avgMissLatency::processor.switch1.core.data 12337.544580                       # average ReadReq miss latency ((Tick/Count))
board.cache_hierarchy.l1d-cache-1.ReadReq.avgMissLatency::total 12337.544580                       # average ReadReq miss latency ((Tick/Count))
board.cache_hierarchy.l1d-cache-1.ReadReq.mshrHits::processor.switch1.core.data       153698                       # number of ReadReq MSHR hits (Count)
board.cache_hierarchy.l1d-cache-1.ReadReq.mshrHits::total       153698                       # number of ReadReq MSHR hits (Count)
board.cache_hierarchy.l1d-cache-1.ReadReq.mshrMisses::processor.switch1.core.data     10192409                       # number of ReadReq MSHR misses (Count)
board.cache_hierarchy.l1d-cache-1.ReadReq.mshrMisses::total     10192409                       # number of ReadReq MSHR misses (Count)
board.cache_hierarchy.l1d-cache-1.ReadReq.mshrUncacheable::processor.switch1.core.data        10859                       # number of ReadReq MSHR uncacheable (Count)
board.cache_hierarchy.l1d-cache-1.ReadReq.mshrUncacheable::total        10859                       # number of ReadReq MSHR uncacheable (Count)
board.cache_hierarchy.l1d-cache-1.ReadReq.mshrMissLatency::processor.switch1.core.data 122589249039                       # number of ReadReq MSHR miss ticks (Tick)
board.cache_hierarchy.l1d-cache-1.ReadReq.mshrMissLatency::total 122589249039                       # number of ReadReq MSHR miss ticks (Tick)
board.cache_hierarchy.l1d-cache-1.ReadReq.mshrUncacheableLatency::processor.switch1.core.data   1521626850                       # number of ReadReq MSHR uncacheable ticks (Tick)
board.cache_hierarchy.l1d-cache-1.ReadReq.mshrUncacheableLatency::total   1521626850                       # number of ReadReq MSHR uncacheable ticks (Tick)
board.cache_hierarchy.l1d-cache-1.ReadReq.mshrMissRate::processor.switch1.core.data     0.022864                       # mshr miss rate for ReadReq accesses (Ratio)
board.cache_hierarchy.l1d-cache-1.ReadReq.mshrMissRate::total     0.022864                       # mshr miss rate for ReadReq accesses (Ratio)
board.cache_hierarchy.l1d-cache-1.ReadReq.avgMshrMissLatency::processor.switch1.core.data 12027.504885                       # average ReadReq mshr miss latency ((Tick/Count))
board.cache_hierarchy.l1d-cache-1.ReadReq.avgMshrMissLatency::total 12027.504885                       # average ReadReq mshr miss latency ((Tick/Count))
board.cache_hierarchy.l1d-cache-1.ReadReq.avgMshrUncacheableLatency::processor.switch1.core.data 140125.872548                       # average ReadReq mshr uncacheable latency ((Tick/Count))
board.cache_hierarchy.l1d-cache-1.ReadReq.avgMshrUncacheableLatency::total 140125.872548                       # average ReadReq mshr uncacheable latency ((Tick/Count))
board.cache_hierarchy.l1d-cache-1.SoftPFReq.hits::processor.switch1.core.data      1936437                       # number of SoftPFReq hits (Count)
board.cache_hierarchy.l1d-cache-1.SoftPFReq.hits::total      1936437                       # number of SoftPFReq hits (Count)
board.cache_hierarchy.l1d-cache-1.SoftPFReq.misses::processor.switch1.core.data       113867                       # number of SoftPFReq misses (Count)
board.cache_hierarchy.l1d-cache-1.SoftPFReq.misses::total       113867                       # number of SoftPFReq misses (Count)
board.cache_hierarchy.l1d-cache-1.SoftPFReq.accesses::processor.switch1.core.data      2050304                       # number of SoftPFReq accesses(hits+misses) (Count)
board.cache_hierarchy.l1d-cache-1.SoftPFReq.accesses::total      2050304                       # number of SoftPFReq accesses(hits+misses) (Count)
board.cache_hierarchy.l1d-cache-1.SoftPFReq.missRate::processor.switch1.core.data     0.055537                       # miss rate for SoftPFReq accesses (Ratio)
board.cache_hierarchy.l1d-cache-1.SoftPFReq.missRate::total     0.055537                       # miss rate for SoftPFReq accesses (Ratio)
board.cache_hierarchy.l1d-cache-1.SoftPFReq.mshrMisses::processor.switch1.core.data       113867                       # number of SoftPFReq MSHR misses (Count)
board.cache_hierarchy.l1d-cache-1.SoftPFReq.mshrMisses::total       113867                       # number of SoftPFReq MSHR misses (Count)
board.cache_hierarchy.l1d-cache-1.SoftPFReq.mshrMissLatency::processor.switch1.core.data   1186886925                       # number of SoftPFReq MSHR miss ticks (Tick)
board.cache_hierarchy.l1d-cache-1.SoftPFReq.mshrMissLatency::total   1186886925                       # number of SoftPFReq MSHR miss ticks (Tick)
board.cache_hierarchy.l1d-cache-1.SoftPFReq.mshrMissRate::processor.switch1.core.data     0.055537                       # mshr miss rate for SoftPFReq accesses (Ratio)
board.cache_hierarchy.l1d-cache-1.SoftPFReq.mshrMissRate::total     0.055537                       # mshr miss rate for SoftPFReq accesses (Ratio)
board.cache_hierarchy.l1d-cache-1.SoftPFReq.avgMshrMissLatency::processor.switch1.core.data 10423.449507                       # average SoftPFReq mshr miss latency ((Tick/Count))
board.cache_hierarchy.l1d-cache-1.SoftPFReq.avgMshrMissLatency::total 10423.449507                       # average SoftPFReq mshr miss latency ((Tick/Count))
board.cache_hierarchy.l1d-cache-1.WriteReq.hits::processor.switch1.core.data    308901811                       # number of WriteReq hits (Count)
board.cache_hierarchy.l1d-cache-1.WriteReq.hits::total    308901811                       # number of WriteReq hits (Count)
board.cache_hierarchy.l1d-cache-1.WriteReq.misses::processor.switch1.core.data      4228596                       # number of WriteReq misses (Count)
board.cache_hierarchy.l1d-cache-1.WriteReq.misses::total      4228596                       # number of WriteReq misses (Count)
board.cache_hierarchy.l1d-cache-1.WriteReq.missLatency::processor.switch1.core.data  67198010724                       # number of WriteReq miss ticks (Tick)
board.cache_hierarchy.l1d-cache-1.WriteReq.missLatency::total  67198010724                       # number of WriteReq miss ticks (Tick)
board.cache_hierarchy.l1d-cache-1.WriteReq.accesses::processor.switch1.core.data    313130407                       # number of WriteReq accesses(hits+misses) (Count)
board.cache_hierarchy.l1d-cache-1.WriteReq.accesses::total    313130407                       # number of WriteReq accesses(hits+misses) (Count)
board.cache_hierarchy.l1d-cache-1.WriteReq.missRate::processor.switch1.core.data     0.013504                       # miss rate for WriteReq accesses (Ratio)
board.cache_hierarchy.l1d-cache-1.WriteReq.missRate::total     0.013504                       # miss rate for WriteReq accesses (Ratio)
board.cache_hierarchy.l1d-cache-1.WriteReq.avgMissLatency::processor.switch1.core.data 15891.329113                       # average WriteReq miss latency ((Tick/Count))
board.cache_hierarchy.l1d-cache-1.WriteReq.avgMissLatency::total 15891.329113                       # average WriteReq miss latency ((Tick/Count))
board.cache_hierarchy.l1d-cache-1.WriteReq.mshrHits::processor.switch1.core.data       323306                       # number of WriteReq MSHR hits (Count)
board.cache_hierarchy.l1d-cache-1.WriteReq.mshrHits::total       323306                       # number of WriteReq MSHR hits (Count)
board.cache_hierarchy.l1d-cache-1.WriteReq.mshrMisses::processor.switch1.core.data      3905290                       # number of WriteReq MSHR misses (Count)
board.cache_hierarchy.l1d-cache-1.WriteReq.mshrMisses::total      3905290                       # number of WriteReq MSHR misses (Count)
board.cache_hierarchy.l1d-cache-1.WriteReq.mshrUncacheable::processor.switch1.core.data        18445                       # number of WriteReq MSHR uncacheable (Count)
board.cache_hierarchy.l1d-cache-1.WriteReq.mshrUncacheable::total        18445                       # number of WriteReq MSHR uncacheable (Count)
board.cache_hierarchy.l1d-cache-1.WriteReq.mshrMissLatency::processor.switch1.core.data  61934724945                       # number of WriteReq MSHR miss ticks (Tick)
board.cache_hierarchy.l1d-cache-1.WriteReq.mshrMissLatency::total  61934724945                       # number of WriteReq MSHR miss ticks (Tick)
board.cache_hierarchy.l1d-cache-1.WriteReq.mshrMissRate::processor.switch1.core.data     0.012472                       # mshr miss rate for WriteReq accesses (Ratio)
board.cache_hierarchy.l1d-cache-1.WriteReq.mshrMissRate::total     0.012472                       # mshr miss rate for WriteReq accesses (Ratio)
board.cache_hierarchy.l1d-cache-1.WriteReq.avgMshrMissLatency::processor.switch1.core.data 15859.187140                       # average WriteReq mshr miss latency ((Tick/Count))
board.cache_hierarchy.l1d-cache-1.WriteReq.avgMshrMissLatency::total 15859.187140                       # average WriteReq mshr miss latency ((Tick/Count))
board.cache_hierarchy.l1d-cache-1.power_state.pwrStateResidencyTicks::UNDEFINED 28141480899451                       # Cumulative time (in ticks) in various power states (Tick)
board.cache_hierarchy.l1d-cache-1.prefetcher.demandMshrMisses     14097699                       # demands not covered by prefetchs (Count)
board.cache_hierarchy.l1d-cache-1.prefetcher.pfIssued     18544740                       # number of hwpf issued (Count)
board.cache_hierarchy.l1d-cache-1.prefetcher.pfUnused       539071                       # number of HardPF blocks evicted w/o reference (Count)
board.cache_hierarchy.l1d-cache-1.prefetcher.pfUseful      4405567                       # number of useful prefetch (Count)
board.cache_hierarchy.l1d-cache-1.prefetcher.pfUsefulButMiss         3018                       # number of hit on prefetch but cache block is not in an usable state (Count)
board.cache_hierarchy.l1d-cache-1.prefetcher.accuracy     0.237564                       # accuracy of the prefetcher (Count)
board.cache_hierarchy.l1d-cache-1.prefetcher.coverage     0.238097                       # coverage brought by this prefetcher (Count)
board.cache_hierarchy.l1d-cache-1.prefetcher.pfHitInCache      9556579                       # number of prefetches hitting in cache (Count)
board.cache_hierarchy.l1d-cache-1.prefetcher.pfHitInMSHR      3543725                       # number of prefetches hitting in a MSHR (Count)
board.cache_hierarchy.l1d-cache-1.prefetcher.pfHitInWB           23                       # number of prefetches hit in the Write Buffer (Count)
board.cache_hierarchy.l1d-cache-1.prefetcher.pfLate     13100327                       # number of late prefetches (hitting in cache, MSHR or WB) (Count)
board.cache_hierarchy.l1d-cache-1.prefetcher.pfIdentified     18549683                       # number of prefetch candidates identified (Count)
board.cache_hierarchy.l1d-cache-1.prefetcher.pfBufferHit         3704                       # number of redundant prefetches already in prefetch queue (Count)
board.cache_hierarchy.l1d-cache-1.prefetcher.pfInCache            0                       # number of redundant prefetches already in cache/mshr dropped (Count)
board.cache_hierarchy.l1d-cache-1.prefetcher.pfRemovedDemand         1228                       # number of prefetches dropped due to a demand for the same address (Count)
board.cache_hierarchy.l1d-cache-1.prefetcher.pfRemovedFull            0                       # number of prefetches dropped due to prefetch queue size (Count)
board.cache_hierarchy.l1d-cache-1.prefetcher.pfSpanPage      1438969                       # number of prefetches that crossed the page (Count)
board.cache_hierarchy.l1d-cache-1.prefetcher.pfUsefulSpanPage      1186424                       # number of prefetches that is useful and crossed the page (Count)
board.cache_hierarchy.l1d-cache-1.prefetcher.power_state.pwrStateResidencyTicks::UNDEFINED 28141480899451                       # Cumulative time (in ticks) in various power states (Tick)
board.cache_hierarchy.l1d-cache-1.tags.tagsInUse   503.233039                       # Average ticks per tags in use ((Tick/Count))
board.cache_hierarchy.l1d-cache-1.tags.totalRefs    770682122                       # Total number of references to valid blocks. (Count)
board.cache_hierarchy.l1d-cache-1.tags.sampledRefs     19902221                       # Sample count of references to valid blocks. (Count)
board.cache_hierarchy.l1d-cache-1.tags.avgRefs    38.723423                       # Average number of references to valid blocks. ((Count/Count))
board.cache_hierarchy.l1d-cache-1.tags.warmupTick 20833720929162                       # The tick when the warmup percentage was hit. (Tick)
board.cache_hierarchy.l1d-cache-1.tags.occupancies::cache_hierarchy.l1d-cache-1.prefetcher    55.376085                       # Average occupied blocks per tick, per requestor ((Count/Tick))
[...]
board.processor.switch1.core.commitStats0.committedInstType::SimdFloatAdd            0      0.00%     78.29% # Class of committed instruction. (Count)
board.processor.switch1.core.commitStats0.committedInstType::SimdFloatAlu            0      0.00%     78.29% # Class of committed instruction. (Count)
board.processor.switch1.core.commitStats0.committedInstType::SimdFloatCmp            0      0.00%     78.29% # Class of committed instruction. (Count)
board.processor.switch1.core.commitStats0.committedInstType::SimdFloatCvt            0      0.00%     78.29% # Class of committed instruction. (Count)
board.processor.switch1.core.commitStats0.committedInstType::SimdFloatDiv            0      0.00%     78.29% # Class of committed instruction. (Count)
board.processor.switch1.core.commitStats0.committedInstType::SimdFloatMisc            0      0.00%     78.29% # Class of committed instruction. (Count)
board.processor.switch1.core.commitStats0.committedInstType::SimdFloatMult            0      0.00%     78.29% # Class of committed instruction. (Count)
board.processor.switch1.core.commitStats0.committedInstType::SimdFloatMultAcc            0      0.00%     78.29% # Class of committed instruction. (Count)
board.processor.switch1.core.commitStats0.committedInstType::SimdFloatMatMultAcc            0      0.00%     78.29% # Class of committed instruction. (Count)
board.processor.switch1.core.commitStats0.committedInstType::SimdFloatSqrt            0      0.00%     78.29% # Class of committed instruction. (Count)
board.processor.switch1.core.commitStats0.committedInstType::SimdReduceAdd            0      0.00%     78.29% # Class of committed instruction. (Count)
board.processor.switch1.core.commitStats0.committedInstType::SimdReduceAlu            0      0.00%     78.29% # Class of committed instruction. (Count)
board.processor.switch1.core.commitStats0.committedInstType::SimdReduceCmp            0      0.00%     78.29% # Class of committed instruction. (Count)
board.processor.switch1.core.commitStats0.committedInstType::SimdFloatReduceAdd            0      0.00%     78.29% # Class of committed instruction. (Count)
board.processor.switch1.core.commitStats0.committedInstType::SimdFloatReduceCmp            0      0.00%     78.29% # Class of committed instruction. (Count)
board.processor.switch1.core.commitStats0.committedInstType::SimdAes            0      0.00%     78.29% # Class of committed instruction. (Count)
board.processor.switch1.core.commitStats0.committedInstType::SimdAesMix            0      0.00%     78.29% # Class of committed instruction. (Count)
board.processor.switch1.core.commitStats0.committedInstType::SimdSha1Hash            0      0.00%     78.29% # Class of committed instruction. (Count)
board.processor.switch1.core.commitStats0.committedInstType::SimdSha1Hash2            0      0.00%     78.29% # Class of committed instruction. (Count)
board.processor.switch1.core.commitStats0.committedInstType::SimdSha256Hash            0      0.00%     78.29% # Class of committed instruction. (Count)
board.processor.switch1.core.commitStats0.committedInstType::SimdSha256Hash2            0      0.00%     78.29% # Class of committed instruction. (Count)
board.processor.switch1.core.commitStats0.committedInstType::SimdShaSigma2            0      0.00%     78.29% # Class of committed instruction. (Count)
board.processor.switch1.core.commitStats0.committedInstType::SimdShaSigma3            0      0.00%     78.29% # Class of committed instruction. (Count)
board.processor.switch1.core.commitStats0.committedInstType::SimdSha3            0      0.00%     78.29% # Class of committed instruction. (Count)
board.processor.switch1.core.commitStats0.committedInstType::SimdSm4e            0      0.00%     78.29% # Class of committed instruction. (Count)
board.processor.switch1.core.commitStats0.committedInstType::SimdCrc            0      0.00%     78.29% # Class of committed instruction. (Count)
board.processor.switch1.core.commitStats0.committedInstType::SimdPredAlu            0      0.00%     78.29% # Class of committed instruction. (Count)
board.processor.switch1.core.commitStats0.committedInstType::SimdDotProd            0      0.00%     78.29% # Class of committed instruction. (Count)
board.processor.switch1.core.commitStats0.committedInstType::Matrix            0      0.00%     78.29% # Class of committed instruction. (Count)
board.processor.switch1.core.commitStats0.committedInstType::MatrixMov            0      0.00%     78.29% # Class of committed instruction. (Count)
board.processor.switch1.core.commitStats0.committedInstType::MatrixOP            0      0.00%     78.29% # Class of committed instruction. (Count)
board.processor.switch1.core.commitStats0.committedInstType::MemRead        32017     11.89%     90.18% # Class of committed instruction. (Count)
board.processor.switch1.core.commitStats0.committedInstType::MemWrite        22090      8.20%     98.38% # Class of committed instruction. (Count)
board.processor.switch1.core.commitStats0.committedInstType::FloatMemRead         1176      0.44%     98.82% # Class of committed instruction. (Count)
board.processor.switch1.core.commitStats0.committedInstType::FloatMemWrite         3180      1.18%    100.00% # Class of committed instruction. (Count)
board.processor.switch1.core.commitStats0.committedInstType::InstPrefetch            0      0.00%    100.00% # Class of committed instruction. (Count)
board.processor.switch1.core.commitStats0.committedInstType::SimdUnitStrideLoad            0      0.00%    100.00% # Class of committed instruction. (Count)
board.processor.switch1.core.commitStats0.committedInstType::SimdUnitStrideStore            0      0.00%    100.00% # Class of committed instruction. (Count)
board.processor.switch1.core.commitStats0.committedInstType::SimdUnitStrideMaskLoad            0      0.00%    100.00% # Class of committed instruction. (Count)
board.processor.switch1.core.commitStats0.committedInstType::SimdUnitStrideMaskStore            0      0.00%    100.00% # Class of committed instruction. (Count)
board.processor.switch1.core.commitStats0.committedInstType::SimdStridedLoad            0      0.00%    100.00% # Class of committed instruction. (Count)
board.processor.switch1.core.commitStats0.committedInstType::SimdStridedStore            0      0.00%    100.00% # Class of committed instruction. (Count)
board.processor.switch1.core.commitStats0.committedInstType::SimdIndexedLoad            0      0.00%    100.00% # Class of committed instruction. (Count)
board.processor.switch1.core.commitStats0.committedInstType::SimdIndexedStore            0      0.00%    100.00% # Class of committed instruction. (Count)
board.processor.switch1.core.commitStats0.committedInstType::SimdWholeRegisterLoad            0      0.00%    100.00% # Class of committed instruction. (Count)
board.processor.switch1.core.commitStats0.committedInstType::SimdWholeRegisterStore            0      0.00%    100.00% # Class of committed instruction. (Count)
board.processor.switch1.core.commitStats0.committedInstType::SimdUnitStrideFaultOnlyFirstLoad            0      0.00%    100.00% # Class of committed instruction. (Count)
board.processor.switch1.core.commitStats0.committedInstType::SimdUnitStrideSegmentedLoad            0      0.00%    100.00% # Class of committed instruction. (Count)
board.processor.switch1.core.commitStats0.committedInstType::SimdUnitStrideSegmentedStore            0      0.00%    100.00% # Class of committed instruction. (Count)
board.processor.switch1.core.commitStats0.committedInstType::SimdUnitStrideSegmentedFaultOnlyFirstLoad            0      0.00%    100.00% # Class of committed instruction. (Count)
board.processor.switch1.core.commitStats0.committedInstType::SimdStrideSegmentedLoad            0      0.00%    100.00% # Class of committed instruction. (Count)
board.processor.switch1.core.commitStats0.committedInstType::SimdStrideSegmentedStore            0      0.00%    100.00% # Class of committed instruction. (Count)
board.processor.switch1.core.commitStats0.committedInstType::SimdExt            0      0.00%    100.00% # Class of committed instruction. (Count)
board.processor.switch1.core.commitStats0.committedInstType::SimdFloatExt            0      0.00%    100.00% # Class of committed instruction. (Count)
board.processor.switch1.core.commitStats0.committedInstType::SimdConfig            0      0.00%    100.00% # Class of committed instruction. (Count)
board.processor.switch1.core.commitStats0.committedInstType::SimdBf16Add            0      0.00%    100.00% # Class of committed instruction. (Count)
board.processor.switch1.core.commitStats0.committedInstType::SimdBf16Cmp            0      0.00%    100.00% # Class of committed instruction. (Count)
board.processor.switch1.core.commitStats0.committedInstType::SimdBf16Cvt            0      0.00%    100.00% # Class of committed instruction. (Count)
board.processor.switch1.core.commitStats0.committedInstType::SimdBf16DotProd            0      0.00%    100.00% # Class of committed instruction. (Count)
board.processor.switch1.core.commitStats0.committedInstType::SimdBf16MatMultAcc            0      0.00%    100.00% # Class of committed instruction. (Count)
board.processor.switch1.core.commitStats0.committedInstType::SimdBf16Mult            0      0.00%    100.00% # Class of committed instruction. (Count)
board.processor.switch1.core.commitStats0.committedInstType::SimdBf16MultAcc            0      0.00%    100.00% # Class of committed instruction. (Count)
board.processor.switch1.core.commitStats0.committedInstType::Bf16Cvt            0      0.00%    100.00% # Class of committed instruction. (Count)
board.processor.switch1.core.commitStats0.committedInstType::System            0      0.00%    100.00% # Class of committed instruction. (Count)
board.processor.switch1.core.commitStats0.committedInstType::total       269278                       # Class of committed instruction. (Count)
board.processor.switch1.core.commitStats0.committedControl::IsControl        27994                       # Class of control type instructions committed (Count)
board.processor.switch1.core.commitStats0.committedControl::IsDirectControl        24128                       # Class of control type instructions committed (Count)
board.processor.switch1.core.commitStats0.committedControl::IsIndirectControl         3816                       # Class of control type instructions committed (Count)
board.processor.switch1.core.commitStats0.committedControl::IsCondControl        19476                       # Class of control type instructions committed (Count)
board.processor.switch1.core.commitStats0.committedControl::IsUncondControl         8515                       # Class of control type instructions committed (Count)
board.processor.switch1.core.commitStats0.committedControl::IsCall         3306                       # Class of control type instructions committed (Count)
board.processor.switch1.core.commitStats0.committedControl::IsReturn         3278                       # Class of control type instructions committed (Count)
board.processor.switch1.core.commitStats0.functionCalls         3306                       # Number of function calls committed (Count)
board.processor.switch1.core.commitStats0.numCallsReturns         6584                       # Number of function calls and returns committed (Count)
board.processor.switch1.core.exec_context.thread_0.numMatAluAccesses            0                       # Number of matrix alu accesses (Count)
board.processor.switch1.core.exec_context.thread_0.numMatInsts            0                       # Number of matrix instructions (Count)
board.processor.switch1.core.exec_context.thread_0.numIdleCycles 7794945.166539                       # Number of idle cycles (Cycle)
board.processor.switch1.core.exec_context.thread_0.numBusyCycles 356289.833461                       # Number of busy cycles (Cycle)
board.processor.switch1.core.exec_context.thread_0.notIdleFraction     0.043710                       # Percentage of non-idle cycles (Ratio)
board.processor.switch1.core.exec_context.thread_0.idleFraction     0.956290                       # Percentage of idle cycles (Ratio)
board.processor.switch1.core.executeStats0.numInsts       138348                       # Number of executed instructions (Count)
board.processor.switch1.core.executeStats0.numNop            0                       # Number of nop insts executed (Count)
board.processor.switch1.core.executeStats0.numBranches        27994                       # Number of branches executed (Count)
board.processor.switch1.core.executeStats0.numLoadInsts        33197                       # Number of load instructions executed (Count)
board.processor.switch1.core.executeStats0.numStoreInsts        25270                       # Number of stores executed (Count)
board.processor.switch1.core.executeStats0.instRate     0.016973                       # Inst execution rate ((Count/Cycle))
board.processor.switch1.core.executeStats0.numCCRegReads       117733                       # Number of times the CC registers were read (Count)
board.processor.switch1.core.executeStats0.numCCRegWrites        83467                       # Number of times the CC registers were written (Count)
board.processor.switch1.core.executeStats0.numFpAluAccesses         6430                       # Number of float alu accesses (Count)
board.processor.switch1.core.executeStats0.numFpRegReads         7242                       # Number of times the floating registers were read (Count)
board.processor.switch1.core.executeStats0.numFpRegWrites         2874                       # Number of times the floating registers were written (Count)
board.processor.switch1.core.executeStats0.numIntAluAccesses       260807                       # Number of integer alu accesses (Count)
board.processor.switch1.core.executeStats0.numIntRegReads       304051                       # Number of times the integer registers were read (Count)
board.processor.switch1.core.executeStats0.numIntRegWrites       192149                       # Number of times the integer registers were written (Count)
board.processor.switch1.core.executeStats0.numMemRefs        58467                       # Number of memory refs (Count)
board.processor.switch1.core.executeStats0.numMiscRegReads       112182                       # Number of times the Misc registers were read (Count)
board.processor.switch1.core.executeStats0.numMiscRegWrites          573                       # Number of times the Misc registers were written (Count)
board.processor.switch1.core.executeStats0.numVecAluAccesses            0                       # Number of vector alu accesses (Count)
board.processor.switch1.core.executeStats0.numDiscardedOps            0                       # Number of ops (including micro ops) which were discarded before commit (Count)
board.processor.switch1.core.fetchStats0.numInsts       138348                       # Number of instructions fetched (thread level) (Count)
board.processor.switch1.core.fetchStats0.numOps       269278                       # Number of ops (including micro ops) fetched (thread level) (Count)
board.processor.switch1.core.fetchStats0.fetchRate     0.016973                       # Number of inst fetches per cycle ((Count/Cycle))
board.processor.switch1.core.fetchStats0.numBranches        27994                       # Number of branches fetched (Count)
board.processor.switch1.core.fetchStats0.branchRate     0.003434                       # Number of branch fetches per cycle (Ratio)
board.processor.switch1.core.fetchStats0.numFetchSuspends            0                       # Number of times Execute suspended instruction fetching (Count)
board.processor.switch1.core.mmu.dtb.rdAccesses        33414                       # TLB accesses on read requests (Count)
board.processor.switch1.core.mmu.dtb.wrAccesses        25280                       # TLB accesses on write requests (Count)
board.processor.switch1.core.mmu.dtb.exAccesses            0                       # TLB accesses on execute (instr) requests (Count)
board.processor.switch1.core.mmu.dtb.rdMisses          189                       # TLB misses on read requests (Count)
board.processor.switch1.core.mmu.dtb.wrMisses            7                       # TLB misses on write requests (Count)
board.processor.switch1.core.mmu.dtb.exMisses            0                       # TLB misses on execute (instr) requests (Count)
board.processor.switch1.core.mmu.dtb.walker.power_state.pwrStateResidencyTicks::UNDEFINED   2497116051                       # Cumulative time (in ticks) in various power states (Tick)
board.processor.switch1.core.mmu.itb.rdAccesses            0                       # TLB accesses on read requests (Count)
board.processor.switch1.core.mmu.itb.wrAccesses            0                       # TLB accesses on write requests (Count)
board.processor.switch1.core.mmu.itb.exAccesses       177381                       # TLB accesses on execute (instr) requests (Count)
board.processor.switch1.core.mmu.itb.rdMisses            0                       # TLB misses on read requests (Count)
board.processor.switch1.core.mmu.itb.wrMisses            0                       # TLB misses on write requests (Count)
board.processor.switch1.core.mmu.itb.exMisses          145                       # TLB misses on execute (instr) requests (Count)
board.processor.switch1.core.mmu.itb.walker.power_state.pwrStateResidencyTicks::UNDEFINED   2497116051                       # Cumulative time (in ticks) in various power states (Tick)
board.processor.switch1.core.power_state.numTransitions            5                       # Number of power state transitions (Count)
board.processor.switch1.core.power_state.ticksClkGated::samples            3                       # Distribution of time spent in the clock gated state (Tick)
board.processor.switch1.core.power_state.ticksClkGated::mean 795989102.666667                       # Distribution of time spent in the clock gated state (Tick)
board.processor.switch1.core.power_state.ticksClkGated::stdev 341452557.258294                       # Distribution of time spent in the clock gated state (Tick)
board.processor.switch1.core.power_state.ticksClkGated::1000-5e+10            3    100.00%    100.00% # Distribution of time spent in the clock gated state (Tick)
board.processor.switch1.core.power_state.ticksClkGated::min_value    401714549                       # Distribution of time spent in the clock gated state (Tick)
board.processor.switch1.core.power_state.ticksClkGated::max_value    993855150                       # Distribution of time spent in the clock gated state (Tick)
board.processor.switch1.core.power_state.ticksClkGated::total            3                       # Distribution of time spent in the clock gated state (Tick)
board.processor.switch1.core.power_state.pwrStateResidencyTicks::ON    109148743                       # Cumulative time (in ticks) in various power states (Tick)
board.processor.switch1.core.power_state.pwrStateResidencyTicks::CLK_GATED   2387967308                       # Cumulative time (in ticks) in various power states (Tick)
board.processor.switch1.core.thread_0.numInsts       138348                       # Number of Instructions committed (Count)
board.processor.switch1.core.thread_0.numOps       269278                       # Number of Ops committed (Count)
board.processor.switch1.core.thread_0.numMemRefs        58467                       # Number of Memory References (Count)
board.workload.inst.arm                             0                       # number of arm instructions executed (Count)
board.workload.inst.quiesce                         0                       # number of quiesce instructions executed (Count)

---------- End Simulation Statistics   ----------
