
---------- Begin Simulation Statistics ----------
simSeconds                                   7.266302                       # Number of seconds simulated (Second)
simTicks                                 7266302096994                       # Number of ticks simulated (Tick)
finalTick                                28245517340203                       # Number of ticks from beginning of simulation (restored from checkpoints and never reset) (Tick)
simFreq                                  1000000000000                       # The number of ticks per simulated second ((Tick/Second))
hostSeconds                                   7789.19                       # Real time elapsed on the host (Second)
hostTickRate                                932870589                       # The number of ticks simulated per host second (ticks/s) ((Tick/Second))
hostMemory                                    3913492                       # Number of bytes of host memory used (Byte)
simInsts                                   3099607297                       # Number of instructions simulated (Count)
simOps                                     5967886409                       # Number of ops (including micro ops) simulated (Count)
hostInstRate                                   397937                       # Simulator instruction rate (inst/s) ((Count/Second))
hostOpRate                                     766176                       # Simulator op (including micro ops) rate (op/s) ((Count/Second))
board.apicbridge.power_state.pwrStateResidencyTicks::UNDEFINED 28245517340203                       # Cumulative time (in ticks) in various power states (Tick)
board.bridge.power_state.pwrStateResidencyTicks::UNDEFINED 28245517340203                       # Cumulative time (in ticks) in various power states (Tick)
board.cache_hierarchy.iocache.demandMisses::pc.south_bridge.ide      1185921                       # number of demand (read+write) misses (Count)
board.cache_hierarchy.iocache.demandMisses::total      1185921                       # number of demand (read+write) misses (Count)
board.cache_hierarchy.iocache.overallMisses::pc.south_bridge.ide      1185921                       # number of overall misses (Count)
board.cache_hierarchy.iocache.overallMisses::total      1185921                       # number of overall misses (Count)
board.cache_hierarchy.iocache.demandMissLatency::pc.south_bridge.ide  90359286819                       # number of demand (read+write) miss ticks (Tick)
board.cache_hierarchy.iocache.demandMissLatency::total  90359286819                       # number of demand (read+write) miss ticks (Tick)
board.cache_hierarchy.iocache.overallMissLatency::pc.south_bridge.ide  90359286819                       # number of overall miss ticks (Tick)
board.cache_hierarchy.iocache.overallMissLatency::total  90359286819                       # number of overall miss ticks (Tick)
board.cache_hierarchy.iocache.demandAccesses::pc.south_bridge.ide      1185921                       # number of demand (read+write) accesses (Count)
board.cache_hierarchy.iocache.demandAccesses::total      1185921                       # number of demand (read+write) accesses (Count)
board.cache_hierarchy.iocache.overallAccesses::pc.south_bridge.ide      1185921                       # number of overall (read+write) accesses (Count)
board.cache_hierarchy.iocache.overallAccesses::total      1185921                       # number of overall (read+write) accesses (Count)
board.cache_hierarchy.iocache.demandMissRate::pc.south_bridge.ide            1                       # miss rate for demand accesses (Ratio)
board.cache_hierarchy.iocache.demandMissRate::total            1                       # miss rate for demand accesses (Ratio)
board.cache_hierarchy.iocache.overallMissRate::pc.south_bridge.ide            1                       # miss rate for overall accesses (Ratio)
board.cache_hierarchy.iocache.overallMissRate::total            1                       # miss rate for overall accesses (Ratio)
board.cache_hierarchy.iocache.demandAvgMissLatency::pc.south_bridge.ide 76193.344092                       # average overall miss latency in ticks ((Tick/Count))
board.cache_hierarchy.iocache.demandAvgMissLatency::total 76193.344092                       # average overall miss latency in ticks ((Tick/Count))
board.cache_hierarchy.iocache.overallAvgMissLatency::pc.south_bridge.ide 76193.344092                       # average overall miss latency ((Tick/Count))
board.cache_hierarchy.iocache.overallAvgMissLatency::total 76193.344092                       # average overall miss latency ((Tick/Count))
board.cache_hierarchy.iocache.blockedCycles::no_mshrs            0                       # number of cycles access was blocked (Cycle)
board.cache_hierarchy.iocache.blockedCycles::no_wbuffers      1452756                       # number of cycles access was blocked (Cycle)
board.cache_hierarchy.iocache.blockedCycles::no_targets            0                       # number of cycles access was blocked (Cycle)
board.cache_hierarchy.iocache.blockedCauses::no_mshrs            0                       # number of times access was blocked (Count)
board.cache_hierarchy.iocache.blockedCauses::no_wbuffers        99478                       # number of times access was blocked (Count)
board.cache_hierarchy.iocache.blockedCauses::no_targets            0                       # number of times access was blocked (Count)
board.cache_hierarchy.iocache.avgBlocked::no_mshrs          nan                       # average number of cycles each access was blocked ((Cycle/Count))
board.cache_hierarchy.iocache.avgBlocked::no_wbuffers    14.603792                       # average number of cycles each access was blocked ((Cycle/Count))
board.cache_hierarchy.iocache.avgBlocked::no_targets          nan                       # average number of cycles each access was blocked ((Cycle/Count))
board.cache_hierarchy.iocache.writebacks::writebacks       332464                       # number of writebacks (Count)
board.cache_hierarchy.iocache.writebacks::total       332464                       # number of writebacks (Count)
board.cache_hierarchy.iocache.demandMshrMisses::pc.south_bridge.ide      1185921                       # number of demand (read+write) MSHR misses (Count)
board.cache_hierarchy.iocache.demandMshrMisses::total      1185921                       # number of demand (read+write) MSHR misses (Count)
board.cache_hierarchy.iocache.overallMshrMisses::pc.south_bridge.ide      1185921                       # number of overall MSHR misses (Count)
board.cache_hierarchy.iocache.overallMshrMisses::total      1185921                       # number of overall MSHR misses (Count)
board.cache_hierarchy.iocache.demandMshrMissLatency::pc.south_bridge.ide  70613697182                       # number of demand (read+write) MSHR miss ticks (Tick)
board.cache_hierarchy.iocache.demandMshrMissLatency::total  70613697182                       # number of demand (read+write) MSHR miss ticks (Tick)
board.cache_hierarchy.iocache.overallMshrMissLatency::pc.south_bridge.ide  70613697182                       # number of overall MSHR miss ticks (Tick)
board.cache_hierarchy.iocache.overallMshrMissLatency::total  70613697182                       # number of overall MSHR miss ticks (Tick)
board.cache_hierarchy.iocache.demandMshrMissRate::pc.south_bridge.ide            1                       # mshr miss ratio for demand accesses (Ratio)
board.cache_hierarchy.iocache.demandMshrMissRate::total            1                       # mshr miss ratio for demand accesses (Ratio)
board.cache_hierarchy.iocache.overallMshrMissRate::pc.south_bridge.ide            1                       # mshr miss ratio for overall accesses (Ratio)
board.cache_hierarchy.iocache.overallMshrMissRate::total            1                       # mshr miss ratio for overall accesses (Ratio)
board.cache_hierarchy.iocache.demandAvgMshrMissLatency::pc.south_bridge.ide 59543.339887                       # average overall mshr miss latency ((Tick/Count))
board.cache_hierarchy.iocache.demandAvgMshrMissLatency::total 59543.339887                       # average overall mshr miss latency ((Tick/Count))
board.cache_hierarchy.iocache.overallAvgMshrMissLatency::pc.south_bridge.ide 59543.339887                       # average overall mshr miss latency ((Tick/Count))
board.cache_hierarchy.iocache.overallAvgMshrMissLatency::total 59543.339887                       # average overall mshr miss latency ((Tick/Count))
board.cache_hierarchy.iocache.replacements      1185905                       # number of replacements (Count)
board.cache_hierarchy.iocache.ReadReq.misses::pc.south_bridge.ide       853441                       # number of ReadReq misses (Count)
board.cache_hierarchy.iocache.ReadReq.misses::total       853441                       # number of ReadReq misses (Count)
board.cache_hierarchy.iocache.ReadReq.missLatency::pc.south_bridge.ide  76756136026                       # number of ReadReq miss ticks (Tick)
board.cache_hierarchy.iocache.ReadReq.missLatency::total  76756136026                       # number of ReadReq miss ticks (Tick)
board.cache_hierarchy.iocache.ReadReq.accesses::pc.south_bridge.ide       853441                       # number of ReadReq accesses(hits+misses) (Count)
board.cache_hierarchy.iocache.ReadReq.accesses::total       853441                       # number of ReadReq accesses(hits+misses) (Count)
board.cache_hierarchy.iocache.ReadReq.missRate::pc.south_bridge.ide            1                       # miss rate for ReadReq accesses (Ratio)
board.cache_hierarchy.iocache.ReadReq.missRate::total            1                       # miss rate for ReadReq accesses (Ratio)
board.cache_hierarchy.iocache.ReadReq.avgMissLatency::pc.south_bridge.ide 89937.249354                       # average ReadReq miss latency ((Tick/Count))
board.cache_hierarchy.iocache.ReadReq.avgMissLatency::total 89937.249354                       # average ReadReq miss latency ((Tick/Count))
board.cache_hierarchy.iocache.ReadReq.mshrMisses::pc.south_bridge.ide       853441                       # number of ReadReq MSHR misses (Count)
board.cache_hierarchy.iocache.ReadReq.mshrMisses::total       853441                       # number of ReadReq MSHR misses (Count)
board.cache_hierarchy.iocache.ReadReq.mshrMissLatency::pc.south_bridge.ide  62546343376                       # number of ReadReq MSHR miss ticks (Tick)
board.cache_hierarchy.iocache.ReadReq.mshrMissLatency::total  62546343376                       # number of ReadReq MSHR miss ticks (Tick)
board.cache_hierarchy.iocache.ReadReq.mshrMissRate::pc.south_bridge.ide            1                       # mshr miss rate for ReadReq accesses (Ratio)
board.cache_hierarchy.iocache.ReadReq.mshrMissRate::total            1                       # mshr miss rate for ReadReq accesses (Ratio)
board.cache_hierarchy.iocache.ReadReq.avgMshrMissLatency::pc.south_bridge.ide 73287.249354                       # average ReadReq mshr miss latency ((Tick/Count))
board.cache_hierarchy.iocache.ReadReq.avgMshrMissLatency::total 73287.249354                       # average ReadReq mshr miss latency ((Tick/Count))
board.cache_hierarchy.iocache.WriteLineReq.misses::pc.south_bridge.ide       332480                       # number of WriteLineReq misses (Count)
board.cache_hierarchy.iocache.WriteLineReq.misses::total       332480                       # number of WriteLineReq misses (Count)
board.cache_hierarchy.iocache.WriteLineReq.missLatency::pc.south_bridge.ide  13603150793                       # number of WriteLineReq miss ticks (Tick)
board.cache_hierarchy.iocache.WriteLineReq.missLatency::total  13603150793                       # number of WriteLineReq miss ticks (Tick)
board.cache_hierarchy.iocache.WriteLineReq.accesses::pc.south_bridge.ide       332480                       # number of WriteLineReq accesses(hits+misses) (Count)
board.cache_hierarchy.iocache.WriteLineReq.accesses::total       332480                       # number of WriteLineReq accesses(hits+misses) (Count)
board.cache_hierarchy.iocache.WriteLineReq.missRate::pc.south_bridge.ide            1                       # miss rate for WriteLineReq accesses (Ratio)
board.cache_hierarchy.iocache.WriteLineReq.missRate::total            1                       # miss rate for WriteLineReq accesses (Ratio)
board.cache_hierarchy.iocache.WriteLineReq.avgMissLatency::pc.south_bridge.ide 40914.192712                       # average WriteLineReq miss latency ((Tick/Count))
board.cache_hierarchy.iocache.WriteLineReq.avgMissLatency::total 40914.192712                       # average WriteLineReq miss latency ((Tick/Count))
board.cache_hierarchy.iocache.WriteLineReq.mshrMisses::pc.south_bridge.ide       332480                       # number of WriteLineReq MSHR misses (Count)
board.cache_hierarchy.iocache.WriteLineReq.mshrMisses::total       332480                       # number of WriteLineReq MSHR misses (Count)
board.cache_hierarchy.iocache.WriteLineReq.mshrMissLatency::pc.south_bridge.ide   8067353806                       # number of WriteLineReq MSHR miss ticks (Tick)
board.cache_hierarchy.iocache.WriteLineReq.mshrMissLatency::total   8067353806                       # number of WriteLineReq MSHR miss ticks (Tick)
board.cache_hierarchy.iocache.WriteLineReq.mshrMissRate::pc.south_bridge.ide            1                       # mshr miss rate for WriteLineReq accesses (Ratio)
board.cache_hierarchy.iocache.WriteLineReq.mshrMissRate::total            1                       # mshr miss rate for WriteLineReq accesses (Ratio)
board.cache_hierarchy.iocache.WriteLineReq.avgMshrMissLatency::pc.south_bridge.ide 24264.177713                       # average WriteLineReq mshr miss latency ((Tick/Count))
board.cache_hierarchy.iocache.WriteLineReq.avgMshrMissLatency::total 24264.177713                       # average WriteLineReq mshr miss latency ((Tick/Count))
board.cache_hierarchy.iocache.power_state.pwrStateResidencyTicks::UNDEFINED 28245517340203                       # Cumulative time (in ticks) in various power states (Tick)
board.cache_hierarchy.iocache.tags.tagsInUse    15.982775                       # Average ticks per tags in use ((Tick/Count))
board.cache_hierarchy.iocache.tags.totalRefs      1185905                       # Total number of references to valid blocks. (Count)
board.cache_hierarchy.iocache.tags.sampledRefs      1185905                       # Sample count of references to valid blocks. (Count)
board.cache_hierarchy.iocache.tags.avgRefs            1                       # Average number of references to valid blocks. ((Count/Count))
board.cache_hierarchy.iocache.tags.warmupTick 20987036856765                       # The tick when the warmup percentage was hit. (Tick)
board.cache_hierarchy.iocache.tags.occupancies::pc.south_bridge.ide    15.982775                       # Average occupied blocks per tick, per requestor ((Count/Tick))
board.cache_hierarchy.iocache.tags.avgOccs::pc.south_bridge.ide     0.998923                       # Average percentage of cache occupancy ((Ratio/Tick))
board.cache_hierarchy.iocache.tags.avgOccs::total     0.998923                       # Average percentage of cache occupancy ((Ratio/Tick))
board.cache_hierarchy.iocache.tags.occupanciesTaskId::1023           16                       # Occupied blocks per task id (Count)
board.cache_hierarchy.iocache.tags.ageTaskId_1023::4           16                       # Occupied blocks per task id, per block age (Count)
board.cache_hierarchy.iocache.tags.ratioOccsTaskId::1023            1                       # Ratio of occupied blocks and all blocks, per task id (Ratio)
board.cache_hierarchy.iocache.tags.tagAccesses     10673289                       # Number of tag accesses (Count)
board.cache_hierarchy.iocache.tags.dataAccesses     10673289                       # Number of data accesses (Count)
board.cache_hierarchy.iocache.tags.power_state.pwrStateResidencyTicks::UNDEFINED 28245517340203                       # Cumulative time (in ticks) in various power states (Tick)
board.cache_hierarchy.l1d-cache-0.demandHits::processor.switch0.core.data    464493581                       # number of demand (read+write) hits (Count)
board.cache_hierarchy.l1d-cache-0.demandHits::total    464493581                       # number of demand (read+write) hits (Count)
board.cache_hierarchy.l1d-cache-0.overallHits::processor.switch0.core.data    465400065                       # number of overall hits (Count)
board.cache_hierarchy.l1d-cache-0.overallHits::total    465400065                       # number of overall hits (Count)
board.cache_hierarchy.l1d-cache-0.demandMisses::processor.switch0.core.data      7126072                       # number of demand (read+write) misses (Count)
board.cache_hierarchy.l1d-cache-0.demandMisses::total      7126072                       # number of demand (read+write) misses (Count)
board.cache_hierarchy.l1d-cache-0.overallMisses::processor.switch0.core.data      7184091                       # number of overall misses (Count)
board.cache_hierarchy.l1d-cache-0.overallMisses::total      7184091                       # number of overall misses (Count)
board.cache_hierarchy.l1d-cache-0.demandMissLatency::processor.switch0.core.data 140003457399                       # number of demand (read+write) miss ticks (Tick)
board.cache_hierarchy.l1d-cache-0.demandMissLatency::total 140003457399                       # number of demand (read+write) miss ticks (Tick)
board.cache_hierarchy.l1d-cache-0.overallMissLatency::processor.switch0.core.data 140003457399                       # number of overall miss ticks (Tick)
board.cache_hierarchy.l1d-cache-0.overallMissLatency::total 140003457399                       # number of overall miss ticks (Tick)
board.cache_hierarchy.l1d-cache-0.demandAccesses::processor.switch0.core.data    471619653                       # number of demand (read+write) accesses (Count)
board.cache_hierarchy.l1d-cache-0.demandAccesses::total    471619653                       # number of demand (read+write) accesses (Count)
board.cache_hierarchy.l1d-cache-0.overallAccesses::processor.switch0.core.data    472584156                       # number of overall (read+write) accesses (Count)
board.cache_hierarchy.l1d-cache-0.overallAccesses::total    472584156                       # number of overall (read+write) accesses (Count)
board.cache_hierarchy.l1d-cache-0.demandMissRate::processor.switch0.core.data     0.015110                       # miss rate for demand accesses (Ratio)
board.cache_hierarchy.l1d-cache-0.demandMissRate::total     0.015110                       # miss rate for demand accesses (Ratio)
board.cache_hierarchy.l1d-cache-0.overallMissRate::processor.switch0.core.data     0.015202                       # miss rate for overall accesses (Ratio)
board.cache_hierarchy.l1d-cache-0.overallMissRate::total     0.015202                       # miss rate for overall accesses (Ratio)
board.cache_hierarchy.l1d-cache-0.demandAvgMissLatency::processor.switch0.core.data 19646.652097                       # average overall miss latency in ticks ((Tick/Count))
board.cache_hierarchy.l1d-cache-0.demandAvgMissLatency::total 19646.652097                       # average overall miss latency in ticks ((Tick/Count))
board.cache_hierarchy.l1d-cache-0.overallAvgMissLatency::processor.switch0.core.data 19487.984966                       # average overall miss latency ((Tick/Count))
board.cache_hierarchy.l1d-cache-0.overallAvgMissLatency::total 19487.984966                       # average overall miss latency ((Tick/Count))
board.cache_hierarchy.l1d-cache-0.blockedCycles::no_mshrs            0                       # number of cycles access was blocked (Cycle)
board.cache_hierarchy.l1d-cache-0.blockedCycles::no_wbuffers            0                       # number of cycles access was blocked (Cycle)
board.cache_hierarchy.l1d-cache-0.blockedCycles::no_targets            0                       # number of cycles access was blocked (Cycle)
board.cache_hierarchy.l1d-cache-0.blockedCauses::no_mshrs            0                       # number of times access was blocked (Count)
board.cache_hierarchy.l1d-cache-0.blockedCauses::no_wbuffers            0                       # number of times access was blocked (Count)
board.cache_hierarchy.l1d-cache-0.blockedCauses::no_targets            0                       # number of times access was blocked (Count)
board.cache_hierarchy.l1d-cache-0.avgBlocked::no_mshrs          nan                       # average number of cycles each access was blocked ((Cycle/Count))
board.cache_hierarchy.l1d-cache-0.avgBlocked::no_wbuffers          nan                       # average number of cycles each access was blocked ((Cycle/Count))
board.cache_hierarchy.l1d-cache-0.avgBlocked::no_targets          nan                       # average number of cycles each access was blocked ((Cycle/Count))
board.cache_hierarchy.l1d-cache-0.writebacks::writebacks      4824685                       # number of writebacks (Count)
board.cache_hierarchy.l1d-cache-0.writebacks::total      4824685                       # number of writebacks (Count)
board.cache_hierarchy.l1d-cache-0.demandMshrHits::processor.switch0.core.data       323370                       # number of demand (read+write) MSHR hits (Count)
board.cache_hierarchy.l1d-cache-0.demandMshrHits::total       323370                       # number of demand (read+write) MSHR hits (Count)
board.cache_hierarchy.l1d-cache-0.overallMshrHits::processor.switch0.core.data       323370                       # number of overall MSHR hits (Count)
board.cache_hierarchy.l1d-cache-0.overallMshrHits::total       323370                       # number of overall MSHR hits (Count)
board.cache_hierarchy.l1d-cache-0.demandMshrMisses::processor.switch0.core.data      6802702                       # number of demand (read+write) MSHR misses (Count)
board.cache_hierarchy.l1d-cache-0.demandMshrMisses::total      6802702                       # number of demand (read+write) MSHR misses (Count)
board.cache_hierarchy.l1d-cache-0.overallMshrMisses::cache_hierarchy.l1d-cache-0.prefetcher      3242998                       # number of overall MSHR misses (Count)
board.cache_hierarchy.l1d-cache-0.overallMshrMisses::processor.switch0.core.data      6860721                       # number of overall MSHR misses (Count)
board.cache_hierarchy.l1d-cache-0.overallMshrMisses::total     10103719                       # number of overall MSHR misses (Count)
board.cache_hierarchy.l1d-cache-0.overallMshrUncacheable::processor.switch0.core.data       131858                       # number of overall MSHR uncacheable misses (Count)
board.cache_hierarchy.l1d-cache-0.overallMshrUncacheable::total       131858                       # number of overall MSHR uncacheable misses (Count)
board.cache_hierarchy.l1d-cache-0.demandMshrMissLatency::processor.switch0.core.data 133945687566                       # number of demand (read+write) MSHR miss ticks (Tick)
board.cache_hierarchy.l1d-cache-0.demandMshrMissLatency::total 133945687566                       # number of demand (read+write) MSHR miss ticks (Tick)
board.cache_hierarchy.l1d-cache-0.overallMshrMissLatency::cache_hierarchy.l1d-cache-0.prefetcher  76519900326                       # number of overall MSHR miss ticks (Tick)
board.cache_hierarchy.l1d-cache-0.overallMshrMissLatency::processor.switch0.core.data 135492480558                       # number of overall MSHR miss ticks (Tick)
board.cache_hierarchy.l1d-cache-0.overallMshrMissLatency::total 212012380884                       # number of overall MSHR miss ticks (Tick)
board.cache_hierarchy.l1d-cache-0.overallMshrUncacheableLatency::processor.switch0.core.data  18174947859                       # number of overall MSHR uncacheable ticks (Tick)
board.cache_hierarchy.l1d-cache-0.overallMshrUncacheableLatency::total  18174947859                       # number of overall MSHR uncacheable ticks (Tick)
board.cache_hierarchy.l1d-cache-0.demandMshrMissRate::processor.switch0.core.data     0.014424                       # mshr miss ratio for demand accesses (Ratio)
board.cache_hierarchy.l1d-cache-0.demandMshrMissRate::total     0.014424                       # mshr miss ratio for demand accesses (Ratio)
board.cache_hierarchy.l1d-cache-0.overallMshrMissRate::cache_hierarchy.l1d-cache-0.prefetcher          inf                       # mshr miss ratio for overall accesses (Ratio)
board.cache_hierarchy.l1d-cache-0.overallMshrMissRate::processor.switch0.core.data     0.014517                       # mshr miss ratio for overall accesses (Ratio)
board.cache_hierarchy.l1d-cache-0.overallMshrMissRate::total     0.021380                       # mshr miss ratio for overall accesses (Ratio)
board.cache_hierarchy.l1d-cache-0.demandAvgMshrMissLatency::processor.switch0.core.data 19690.071323                       # average overall mshr miss latency ((Tick/Count))
board.cache_hierarchy.l1d-cache-0.demandAvgMshrMissLatency::total 19690.071323                       # average overall mshr miss latency ((Tick/Count))
board.cache_hierarchy.l1d-cache-0.overallAvgMshrMissLatency::cache_hierarchy.l1d-cache-0.prefetcher 23595.420141                       # average overall mshr miss latency ((Tick/Count))
board.cache_hierarchy.l1d-cache-0.overallAvgMshrMissLatency::processor.switch0.core.data 19749.014799                       # average overall mshr miss latency ((Tick/Count))
board.cache_hierarchy.l1d-cache-0.overallAvgMshrMissLatency::total 20983.598305                       # average overall mshr miss latency ((Tick/Count))
board.cache_hierarchy.l1d-cache-0.overallAvgMshrUncacheableLatency::processor.switch0.core.data 137837.278428                       # average overall mshr uncacheable latency ((Tick/Count))
board.cache_hierarchy.l1d-cache-0.overallAvgMshrUncacheableLatency::total 137837.278428                       # average overall mshr uncacheable latency ((Tick/Count))
board.cache_hierarchy.l1d-cache-0.replacements     10153643                       # number of replacements (Count)
board.cache_hierarchy.l1d-cache-0.HardPFReq.mshrMisses::cache_hierarchy.l1d-cache-0.prefetcher      3242998                       # number of HardPFReq MSHR misses (Count)
board.cache_hierarchy.l1d-cache-0.HardPFReq.mshrMisses::total      3242998                       # number of HardPFReq MSHR misses (Count)
board.cache_hierarchy.l1d-cache-0.HardPFReq.mshrMissLatency::cache_hierarchy.l1d-cache-0.prefetcher  76519900326                       # number of HardPFReq MSHR miss ticks (Tick)
board.cache_hierarchy.l1d-cache-0.HardPFReq.mshrMissLatency::total  76519900326                       # number of HardPFReq MSHR miss ticks (Tick)
board.cache_hierarchy.l1d-cache-0.HardPFReq.mshrMissRate::cache_hierarchy.l1d-cache-0.prefetcher          inf                       # mshr miss rate for HardPFReq accesses (Ratio)
board.cache_hierarchy.l1d-cache-0.HardPFReq.mshrMissRate::total          inf                       # mshr miss rate for HardPFReq accesses (Ratio)
board.cache_hierarchy.l1d-cache-0.HardPFReq.avgMshrMissLatency::cache_hierarchy.l1d-cache-0.prefetcher 23595.420141                       # average HardPFReq mshr miss latency ((Tick/Count))
board.cache_hierarchy.l1d-cache-0.HardPFReq.avgMshrMissLatency::total 23595.420141                       # average HardPFReq mshr miss latency ((Tick/Count))
board.cache_hierarchy.l1d-cache-0.LockedRMWReadReq.hits::processor.switch0.core.data      1770170                       # number of LockedRMWReadReq hits (Count)
board.cache_hierarchy.l1d-cache-0.LockedRMWReadReq.hits::total      1770170                       # number of LockedRMWReadReq hits (Count)
board.cache_hierarchy.l1d-cache-0.LockedRMWReadReq.misses::processor.switch0.core.data       149552                       # number of LockedRMWReadReq misses (Count)
board.cache_hierarchy.l1d-cache-0.LockedRMWReadReq.misses::total       149552                       # number of LockedRMWReadReq misses (Count)
board.cache_hierarchy.l1d-cache-0.LockedRMWReadReq.missLatency::processor.switch0.core.data   2834198298                       # number of LockedRMWReadReq miss ticks (Tick)
board.cache_hierarchy.l1d-cache-0.LockedRMWReadReq.missLatency::total   2834198298                       # number of LockedRMWReadReq miss ticks (Tick)
board.cache_hierarchy.l1d-cache-0.LockedRMWReadReq.accesses::processor.switch0.core.data      1919722                       # number of LockedRMWReadReq accesses(hits+misses) (Count)
board.cache_hierarchy.l1d-cache-0.LockedRMWReadReq.accesses::total      1919722                       # number of LockedRMWReadReq accesses(hits+misses) (Count)
board.cache_hierarchy.l1d-cache-0.LockedRMWReadReq.missRate::processor.switch0.core.data     0.077903                       # miss rate for LockedRMWReadReq accesses (Ratio)
board.cache_hierarchy.l1d-cache-0.LockedRMWReadReq.missRate::total     0.077903                       # miss rate for LockedRMWReadReq accesses (Ratio)
board.cache_hierarchy.l1d-cache-0.LockedRMWReadReq.avgMissLatency::processor.switch0.core.data 18951.256406                       # average LockedRMWReadReq miss latency ((Tick/Count))
board.cache_hierarchy.l1d-cache-0.LockedRMWReadReq.avgMissLatency::total 18951.256406                       # average LockedRMWReadReq miss latency ((Tick/Count))
board.cache_hierarchy.l1d-cache-0.LockedRMWReadReq.mshrMisses::processor.switch0.core.data       149552                       # number of LockedRMWReadReq MSHR misses (Count)
board.cache_hierarchy.l1d-cache-0.LockedRMWReadReq.mshrMisses::total       149552                       # number of LockedRMWReadReq MSHR misses (Count)
board.cache_hierarchy.l1d-cache-0.LockedRMWReadReq.mshrUncacheable::processor.switch0.core.data           20                       # number of LockedRMWReadReq MSHR uncacheable (Count)
board.cache_hierarchy.l1d-cache-0.LockedRMWReadReq.mshrUncacheable::total           20                       # number of LockedRMWReadReq MSHR uncacheable (Count)
board.cache_hierarchy.l1d-cache-0.LockedRMWReadReq.mshrMissLatency::processor.switch0.core.data   6208062390                       # number of LockedRMWReadReq MSHR miss ticks (Tick)
board.cache_hierarchy.l1d-cache-0.LockedRMWReadReq.mshrMissLatency::total   6208062390                       # number of LockedRMWReadReq MSHR miss ticks (Tick)
board.cache_hierarchy.l1d-cache-0.LockedRMWReadReq.mshrUncacheableLatency::processor.switch0.core.data      2217780                       # number of LockedRMWReadReq MSHR uncacheable ticks (Tick)
board.cache_hierarchy.l1d-cache-0.LockedRMWReadReq.mshrUncacheableLatency::total      2217780                       # number of LockedRMWReadReq MSHR uncacheable ticks (Tick)
board.cache_hierarchy.l1d-cache-0.LockedRMWReadReq.mshrMissRate::processor.switch0.core.data     0.077903                       # mshr miss rate for LockedRMWReadReq accesses (Ratio)
board.cache_hierarchy.l1d-cache-0.LockedRMWReadReq.mshrMissRate::total     0.077903                       # mshr miss rate for LockedRMWReadReq accesses (Ratio)
board.cache_hierarchy.l1d-cache-0.LockedRMWReadReq.avgMshrMissLatency::processor.switch0.core.data 41511.062306                       # average LockedRMWReadReq mshr miss latency ((Tick/Count))
board.cache_hierarchy.l1d-cache-0.LockedRMWReadReq.avgMshrMissLatency::total 41511.062306                       # average LockedRMWReadReq mshr miss latency ((Tick/Count))
board.cache_hierarchy.l1d-cache-0.LockedRMWReadReq.avgMshrUncacheableLatency::processor.switch0.core.data       110889                       # average LockedRMWReadReq mshr uncacheable latency ((Tick/Count))
board.cache_hierarchy.l1d-cache-0.LockedRMWReadReq.avgMshrUncacheableLatency::total       110889                       # average LockedRMWReadReq mshr uncacheable latency ((Tick/Count))
board.cache_hierarchy.l1d-cache-0.LockedRMWWriteReq.hits::processor.switch0.core.data      1919722                       # number of LockedRMWWriteReq hits (Count)
board.cache_hierarchy.l1d-cache-0.LockedRMWWriteReq.hits::total      1919722                       # number of LockedRMWWriteReq hits (Count)
board.cache_hierarchy.l1d-cache-0.LockedRMWWriteReq.accesses::processor.switch0.core.data      1919722                       # number of LockedRMWWriteReq accesses(hits+misses) (Count)
board.cache_hierarchy.l1d-cache-0.LockedRMWWriteReq.accesses::total      1919722                       # number of LockedRMWWriteReq accesses(hits+misses) (Count)
board.cache_hierarchy.l1d-cache-0.ReadReq.hits::processor.switch0.core.data    268557033                       # number of ReadReq hits (Count)
board.cache_hierarchy.l1d-cache-0.ReadReq.hits::total    268557033                       # number of ReadReq hits (Count)
board.cache_hierarchy.l1d-cache-0.ReadReq.misses::processor.switch0.core.data      5255674                       # number of ReadReq misses (Count)
board.cache_hierarchy.l1d-cache-0.ReadReq.misses::total      5255674                       # number of ReadReq misses (Count)
board.cache_hierarchy.l1d-cache-0.ReadReq.missLatency::processor.switch0.core.data  98409253239                       # number of ReadReq miss ticks (Tick)
board.cache_hierarchy.l1d-cache-0.ReadReq.missLatency::total  98409253239                       # number of ReadReq miss ticks (Tick)
board.cache_hierarchy.l1d-cache-0.ReadReq.accesses::processor.switch0.core.data    273812707                       # number of ReadReq accesses(hits+misses) (Count)
board.cache_hierarchy.l1d-cache-0.ReadReq.accesses::total    273812707                       # number of ReadReq accesses(hits+misses) (Count)
board.cache_hierarchy.l1d-cache-0.ReadReq.missRate::processor.switch0.core.data     0.019194                       # miss rate for ReadReq accesses (Ratio)
board.cache_hierarchy.l1d-cache-0.ReadReq.missRate::total     0.019194                       # miss rate for ReadReq accesses (Ratio)
board.cache_hierarchy.l1d-cache-0.ReadReq.avgMissLatency::processor.switch0.core.data 18724.383065                       # average ReadReq miss latency ((Tick/Count))
board.cache_hierarchy.l1d-cache-0.ReadReq.avgMissLatency::total 18724.383065                       # average ReadReq miss latency ((Tick/Count))
board.cache_hierarchy.l1d-cache-0.ReadReq.mshrHits::processor.switch0.core.data        90435                       # number of ReadReq MSHR hits (Count)
board.cache_hierarchy.l1d-cache-0.ReadReq.mshrHits::total        90435                       # number of ReadReq MSHR hits (Count)
board.cache_hierarchy.l1d-cache-0.ReadReq.mshrMisses::processor.switch0.core.data      5165239                       # number of ReadReq MSHR misses (Count)
board.cache_hierarchy.l1d-cache-0.ReadReq.mshrMisses::total      5165239                       # number of ReadReq MSHR misses (Count)
board.cache_hierarchy.l1d-cache-0.ReadReq.mshrUncacheable::processor.switch0.core.data        87338                       # number of ReadReq MSHR uncacheable (Count)
board.cache_hierarchy.l1d-cache-0.ReadReq.mshrUncacheable::total        87338                       # number of ReadReq MSHR uncacheable (Count)
board.cache_hierarchy.l1d-cache-0.ReadReq.mshrMissLatency::processor.switch0.core.data  95665895676                       # number of ReadReq MSHR miss ticks (Tick)
board.cache_hierarchy.l1d-cache-0.ReadReq.mshrMissLatency::total  95665895676                       # number of ReadReq MSHR miss ticks (Tick)
board.cache_hierarchy.l1d-cache-0.ReadReq.mshrUncacheableLatency::processor.switch0.core.data  18174947859                       # number of ReadReq MSHR uncacheable ticks (Tick)
board.cache_hierarchy.l1d-cache-0.ReadReq.mshrUncacheableLatency::total  18174947859                       # number of ReadReq MSHR uncacheable ticks (Tick)
board.cache_hierarchy.l1d-cache-0.ReadReq.mshrMissRate::processor.switch0.core.data     0.018864                       # mshr miss rate for ReadReq accesses (Ratio)
board.cache_hierarchy.l1d-cache-0.ReadReq.mshrMissRate::total     0.018864                       # mshr miss rate for ReadReq accesses (Ratio)
board.cache_hierarchy.l1d-cache-0.ReadReq.avgMshrMissLatency::processor.switch0.core.data 18521.097606                       # average ReadReq mshr miss latency ((Tick/Count))
board.cache_hierarchy.l1d-cache-0.ReadReq.avgMshrMissLatency::total 18521.097606                       # average ReadReq mshr miss latency ((Tick/Count))
board.cache_hierarchy.l1d-cache-0.ReadReq.avgMshrUncacheableLatency::processor.switch0.core.data 208098.970196                       # average ReadReq mshr uncacheable latency ((Tick/Count))
board.cache_hierarchy.l1d-cache-0.ReadReq.avgMshrUncacheableLatency::total 208098.970196                       # average ReadReq mshr uncacheable latency ((Tick/Count))
board.cache_hierarchy.l1d-cache-0.SoftPFReq.hits::processor.switch0.core.data       906484                       # number of SoftPFReq hits (Count)
board.cache_hierarchy.l1d-cache-0.SoftPFReq.hits::total       906484                       # number of SoftPFReq hits (Count)
board.cache_hierarchy.l1d-cache-0.SoftPFReq.misses::processor.switch0.core.data        58019                       # number of SoftPFReq misses (Count)
board.cache_hierarchy.l1d-cache-0.SoftPFReq.misses::total        58019                       # number of SoftPFReq misses (Count)
board.cache_hierarchy.l1d-cache-0.SoftPFReq.accesses::processor.switch0.core.data       964503                       # number of SoftPFReq accesses(hits+misses) (Count)
board.cache_hierarchy.l1d-cache-0.SoftPFReq.accesses::total       964503                       # number of SoftPFReq accesses(hits+misses) (Count)
board.cache_hierarchy.l1d-cache-0.SoftPFReq.missRate::processor.switch0.core.data     0.060154                       # miss rate for SoftPFReq accesses (Ratio)
board.cache_hierarchy.l1d-cache-0.SoftPFReq.missRate::total     0.060154                       # miss rate for SoftPFReq accesses (Ratio)
board.cache_hierarchy.l1d-cache-0.SoftPFReq.mshrMisses::processor.switch0.core.data        58019                       # number of SoftPFReq MSHR misses (Count)
board.cache_hierarchy.l1d-cache-0.SoftPFReq.mshrMisses::total        58019                       # number of SoftPFReq MSHR misses (Count)
board.cache_hierarchy.l1d-cache-0.SoftPFReq.mshrMissLatency::processor.switch0.core.data   1546792992                       # number of SoftPFReq MSHR miss ticks (Tick)
board.cache_hierarchy.l1d-cache-0.SoftPFReq.mshrMissLatency::total   1546792992                       # number of SoftPFReq MSHR miss ticks (Tick)
board.cache_hierarchy.l1d-cache-0.SoftPFReq.mshrMissRate::processor.switch0.core.data     0.060154                       # mshr miss rate for SoftPFReq accesses (Ratio)
board.cache_hierarchy.l1d-cache-0.SoftPFReq.mshrMissRate::total     0.060154                       # mshr miss rate for SoftPFReq accesses (Ratio)
board.cache_hierarchy.l1d-cache-0.SoftPFReq.avgMshrMissLatency::processor.switch0.core.data 26660.111205                       # average SoftPFReq mshr miss latency ((Tick/Count))
board.cache_hierarchy.l1d-cache-0.SoftPFReq.avgMshrMissLatency::total 26660.111205                       # average SoftPFReq mshr miss latency ((Tick/Count))
board.cache_hierarchy.l1d-cache-0.WriteReq.hits::processor.switch0.core.data    195936548                       # number of WriteReq hits (Count)
board.cache_hierarchy.l1d-cache-0.WriteReq.hits::total    195936548                       # number of WriteReq hits (Count)
board.cache_hierarchy.l1d-cache-0.WriteReq.misses::processor.switch0.core.data      1870398                       # number of WriteReq misses (Count)
board.cache_hierarchy.l1d-cache-0.WriteReq.misses::total      1870398                       # number of WriteReq misses (Count)
board.cache_hierarchy.l1d-cache-0.WriteReq.missLatency::processor.switch0.core.data  41594204160                       # number of WriteReq miss ticks (Tick)
board.cache_hierarchy.l1d-cache-0.WriteReq.missLatency::total  41594204160                       # number of WriteReq miss ticks (Tick)
board.cache_hierarchy.l1d-cache-0.WriteReq.accesses::processor.switch0.core.data    197806946                       # number of WriteReq accesses(hits+misses) (Count)
board.cache_hierarchy.l1d-cache-0.WriteReq.accesses::total    197806946                       # number of WriteReq accesses(hits+misses) (Count)
board.cache_hierarchy.l1d-cache-0.WriteReq.missRate::processor.switch0.core.data     0.009456                       # miss rate for WriteReq accesses (Ratio)
board.cache_hierarchy.l1d-cache-0.WriteReq.missRate::total     0.009456                       # miss rate for WriteReq accesses (Ratio)
board.cache_hierarchy.l1d-cache-0.WriteReq.avgMissLatency::processor.switch0.core.data 22238.156884                       # average WriteReq miss latency ((Tick/Count))
board.cache_hierarchy.l1d-cache-0.WriteReq.avgMissLatency::total 22238.156884                       # average WriteReq miss latency ((Tick/Count))
board.cache_hierarchy.l1d-cache-0.WriteReq.mshrHits::processor.switch0.core.data       232935                       # number of WriteReq MSHR hits (Count)
board.cache_hierarchy.l1d-cache-0.WriteReq.mshrHits::total       232935                       # number of WriteReq MSHR hits (Count)
board.cache_hierarchy.l1d-cache-0.WriteReq.mshrMisses::processor.switch0.core.data      1637463                       # number of WriteReq MSHR misses (Count)
board.cache_hierarchy.l1d-cache-0.WriteReq.mshrMisses::total      1637463                       # number of WriteReq MSHR misses (Count)
board.cache_hierarchy.l1d-cache-0.WriteReq.mshrUncacheable::processor.switch0.core.data        44520                       # number of WriteReq MSHR uncacheable (Count)
board.cache_hierarchy.l1d-cache-0.WriteReq.mshrUncacheable::total        44520                       # number of WriteReq MSHR uncacheable (Count)
board.cache_hierarchy.l1d-cache-0.WriteReq.mshrMissLatency::processor.switch0.core.data  38279791890                       # number of WriteReq MSHR miss ticks (Tick)
board.cache_hierarchy.l1d-cache-0.WriteReq.mshrMissLatency::total  38279791890                       # number of WriteReq MSHR miss ticks (Tick)
board.cache_hierarchy.l1d-cache-0.WriteReq.mshrMissRate::processor.switch0.core.data     0.008278                       # mshr miss rate for WriteReq accesses (Ratio)
board.cache_hierarchy.l1d-cache-0.WriteReq.mshrMissRate::total     0.008278                       # mshr miss rate for WriteReq accesses (Ratio)
board.cache_hierarchy.l1d-cache-0.WriteReq.avgMshrMissLatency::processor.switch0.core.data 23377.500371                       # average WriteReq mshr miss latency ((Tick/Count))
board.cache_hierarchy.l1d-cache-0.WriteReq.avgMshrMissLatency::total 23377.500371                       # average WriteReq mshr miss latency ((Tick/Count))
board.cache_hierarchy.l1d-cache-0.power_state.pwrStateResidencyTicks::UNDEFINED 28245517340203                       # Cumulative time (in ticks) in various power states (Tick)
board.cache_hierarchy.l1d-cache-0.prefetcher.demandMshrMisses      6802702                       # demands not covered by prefetchs (Count)
board.cache_hierarchy.l1d-cache-0.prefetcher.pfIssued     11099362                       # number of hwpf issued (Count)
board.cache_hierarchy.l1d-cache-0.prefetcher.pfUnused       307706                       # number of HardPF blocks evicted w/o reference (Count)
board.cache_hierarchy.l1d-cache-0.prefetcher.pfUseful      2612176                       # number of useful prefetch (Count)
board.cache_hierarchy.l1d-cache-0.prefetcher.pfUsefulButMiss         1236                       # number of hit on prefetch but cache block is not in an usable state (Count)
board.cache_hierarchy.l1d-cache-0.prefetcher.accuracy     0.235345                       # accuracy of the prefetcher (Count)
board.cache_hierarchy.l1d-cache-0.prefetcher.coverage     0.277452                       # coverage brought by this prefetcher (Count)
board.cache_hierarchy.l1d-cache-0.prefetcher.pfHitInCache      5358006                       # number of prefetches hitting in cache (Count)
board.cache_hierarchy.l1d-cache-0.prefetcher.pfHitInMSHR      2498351                       # number of prefetches hitting in a MSHR (Count)
board.cache_hierarchy.l1d-cache-0.prefetcher.pfHitInWB            7                       # number of prefetches hit in the Write Buffer (Count)
board.cache_hierarchy.l1d-cache-0.prefetcher.pfLate      7856364                       # number of late prefetches (hitting in cache, MSHR or WB) (Count)
board.cache_hierarchy.l1d-cache-0.prefetcher.pfIdentified     11104574                       # number of prefetch candidates identified (Count)
board.cache_hierarchy.l1d-cache-0.prefetcher.pfBufferHit         3907                       # number of redundant prefetches already in prefetch queue (Count)
board.cache_hierarchy.l1d-cache-0.prefetcher.pfInCache            0                       # number of redundant prefetches already in cache/mshr dropped (Count)
board.cache_hierarchy.l1d-cache-0.prefetcher.pfRemovedDemand         1295                       # number of prefetches dropped due to a demand for the same address (Count)
board.cache_hierarchy.l1d-cache-0.prefetcher.pfRemovedFull            0                       # number of prefetches dropped due to prefetch queue size (Count)
board.cache_hierarchy.l1d-cache-0.prefetcher.pfSpanPage      1202514                       # number of prefetches that crossed the page (Count)
board.cache_hierarchy.l1d-cache-0.prefetcher.pfUsefulSpanPage      1028819                       # number of prefetches that is useful and crossed the page (Count)
board.cache_hierarchy.l1d-cache-0.prefetcher.power_state.pwrStateResidencyTicks::UNDEFINED 28245517340203                       # Cumulative time (in ticks) in various power states (Tick)
board.cache_hierarchy.l1d-cache-0.tags.tagsInUse   505.201893                       # Average ticks per tags in use ((Tick/Count))
board.cache_hierarchy.l1d-cache-0.tags.totalRefs    479299218                       # Total number of references to valid blocks. (Count)
board.cache_hierarchy.l1d-cache-0.tags.sampledRefs     10184846                       # Sample count of references to valid blocks. (Count)
board.cache_hierarchy.l1d-cache-0.tags.avgRefs    47.060036                       # Average number of references to valid blocks. ((Count/Count))
board.cache_hierarchy.l1d-cache-0.tags.warmupTick 20986447962582                       # The tick when the warmup percentage was hit. (Tick)
board.cache_hierarchy.l1d-cache-0.tags.occupancies::cache_hierarchy.l1d-cache-0.prefetcher    43.879567                       # Average occupied blocks per tick, per requestor ((Count/Tick))
board.cache_hierarchy.l1d-cache-0.tags.occupancies::processor.switch0.core.data   461.322326                       # Average occupied blocks per tick, per requestor ((Count/Tick))
board.cache_hierarchy.l1d-cache-0.tags.avgOccs::cache_hierarchy.l1d-cache-0.prefetcher     0.085702                       # Average percentage of cache occupancy ((Ratio/Tick))
board.cache_hierarchy.l1d-cache-0.tags.avgOccs::processor.switch0.core.data     0.901020                       # Average percentage of cache occupancy ((Ratio/Tick))
board.cache_hierarchy.l1d-cache-0.tags.avgOccs::total     0.986722                       # Average percentage of cache occupancy ((Ratio/Tick))
board.cache_hierarchy.l1d-cache-0.tags.occupanciesTaskId::1022          181                       # Occupied blocks per task id (Count)
board.cache_hierarchy.l1d-cache-0.tags.occupanciesTaskId::1024          331                       # Occupied blocks per task id (Count)
board.cache_hierarchy.l1d-cache-0.tags.ageTaskId_1022::2          181                       # Occupied blocks per task id, per block age (Count)
board.cache_hierarchy.l1d-cache-0.tags.ageTaskId_1024::2          330                       # Occupied blocks per task id, per block age (Count)
board.cache_hierarchy.l1d-cache-0.tags.ageTaskId_1024::3            1                       # Occupied blocks per task id, per block age (Count)
board.cache_hierarchy.l1d-cache-0.tags.ratioOccsTaskId::1022     0.353516                       # Ratio of occupied blocks and all blocks, per task id (Ratio)
board.cache_hierarchy.l1d-cache-0.tags.ratioOccsTaskId::1024     0.646484                       # Ratio of occupied blocks and all blocks, per task id (Ratio)
board.cache_hierarchy.l1d-cache-0.tags.tagAccesses   3821574158                       # Number of tag accesses (Count)
board.cache_hierarchy.l1d-cache-0.tags.dataAccesses   3821574158                       # Number of data accesses (Count)
board.cache_hierarchy.l1d-cache-0.tags.power_state.pwrStateResidencyTicks::UNDEFINED 28245517340203                       # Cumulative time (in ticks) in various power states (Tick)
board.cache_hierarchy.l1d-cache-1.demandHits::processor.switch1.core.data    742056619                       # number of demand (read+write) hits (Count)
board.cache_hierarchy.l1d-cache-1.demandHits::total    742056619                       # number of demand (read+write) hits (Count)
board.cache_hierarchy.l1d-cache-1.overallHits::processor.switch1.core.data    744295184                       # number of overall hits (Count)
board.cache_hierarchy.l1d-cache-1.overallHits::total    744295184                       # number of overall hits (Count)
board.cache_hierarchy.l1d-cache-1.demandMisses::processor.switch1.core.data     16701026                       # number of demand (read+write) misses (Count)
board.cache_hierarchy.l1d-cache-1.demandMisses::total     16701026                       # number of demand (read+write) misses (Count)
board.cache_hierarchy.l1d-cache-1.overallMisses::processor.switch1.core.data     16823076                       # number of overall misses (Count)
board.cache_hierarchy.l1d-cache-1.overallMisses::total     16823076                       # number of overall misses (Count)
board.cache_hierarchy.l1d-cache-1.demandMissLatency::processor.switch1.core.data 169932731832                       # number of demand (read+write) miss ticks (Tick)
board.cache_hierarchy.l1d-cache-1.demandMissLatency::total 169932731832                       # number of demand (read+write) miss ticks (Tick)
board.cache_hierarchy.l1d-cache-1.overallMissLatency::processor.switch1.core.data 169932731832                       # number of overall miss ticks (Tick)
board.cache_hierarchy.l1d-cache-1.overallMissLatency::total 169932731832                       # number of overall miss ticks (Tick)
board.cache_hierarchy.l1d-cache-1.demandAccesses::processor.switch1.core.data    758757645                       # number of demand (read+write) accesses (Count)
board.cache_hierarchy.l1d-cache-1.demandAccesses::total    758757645                       # number of demand (read+write) accesses (Count)
board.cache_hierarchy.l1d-cache-1.overallAccesses::processor.switch1.core.data    761118260                       # number of overall (read+write) accesses (Count)
board.cache_hierarchy.l1d-cache-1.overallAccesses::total    761118260                       # number of overall (read+write) accesses (Count)
board.cache_hierarchy.l1d-cache-1.demandMissRate::processor.switch1.core.data     0.022011                       # miss rate for demand accesses (Ratio)
board.cache_hierarchy.l1d-cache-1.demandMissRate::total     0.022011                       # miss rate for demand accesses (Ratio)
board.cache_hierarchy.l1d-cache-1.overallMissRate::processor.switch1.core.data     0.022103                       # miss rate for overall accesses (Ratio)
board.cache_hierarchy.l1d-cache-1.overallMissRate::total     0.022103                       # miss rate for overall accesses (Ratio)
board.cache_hierarchy.l1d-cache-1.demandAvgMissLatency::processor.switch1.core.data 10174.987563                       # average overall miss latency in ticks ((Tick/Count))
board.cache_hierarchy.l1d-cache-1.demandAvgMissLatency::total 10174.987563                       # average overall miss latency in ticks ((Tick/Count))
board.cache_hierarchy.l1d-cache-1.overallAvgMissLatency::processor.switch1.core.data 10101.168884                       # average overall miss latency ((Tick/Count))
board.cache_hierarchy.l1d-cache-1.overallAvgMissLatency::total 10101.168884                       # average overall miss latency ((Tick/Count))
board.cache_hierarchy.l1d-cache-1.blockedCycles::no_mshrs            0                       # number of cycles access was blocked (Cycle)
board.cache_hierarchy.l1d-cache-1.blockedCycles::no_wbuffers            0                       # number of cycles access was blocked (Cycle)
board.cache_hierarchy.l1d-cache-1.blockedCycles::no_targets            0                       # number of cycles access was blocked (Cycle)
board.cache_hierarchy.l1d-cache-1.blockedCauses::no_mshrs            0                       # number of times access was blocked (Count)
board.cache_hierarchy.l1d-cache-1.blockedCauses::no_wbuffers            0                       # number of times access was blocked (Count)
board.cache_hierarchy.l1d-cache-1.blockedCauses::no_targets            0                       # number of times access was blocked (Count)
board.cache_hierarchy.l1d-cache-1.avgBlocked::no_mshrs          nan                       # average number of cycles each access was blocked ((Cycle/Count))
board.cache_hierarchy.l1d-cache-1.avgBlocked::no_wbuffers          nan                       # average number of cycles each access was blocked ((Cycle/Count))
board.cache_hierarchy.l1d-cache-1.avgBlocked::no_targets          nan                       # average number of cycles each access was blocked ((Cycle/Count))
board.cache_hierarchy.l1d-cache-1.writebacks::writebacks     14862656                       # number of writebacks (Count)
board.cache_hierarchy.l1d-cache-1.writebacks::total     14862656                       # number of writebacks (Count)
board.cache_hierarchy.l1d-cache-1.demandMshrHits::processor.switch1.core.data       480962                       # number of demand (read+write) MSHR hits (Count)
board.cache_hierarchy.l1d-cache-1.demandMshrHits::total       480962                       # number of demand (read+write) MSHR hits (Count)
board.cache_hierarchy.l1d-cache-1.overallMshrHits::processor.switch1.core.data       480962                       # number of overall MSHR hits (Count)
board.cache_hierarchy.l1d-cache-1.overallMshrHits::total       480962                       # number of overall MSHR hits (Count)
board.cache_hierarchy.l1d-cache-1.demandMshrMisses::processor.switch1.core.data     16220064                       # number of demand (read+write) MSHR misses (Count)
board.cache_hierarchy.l1d-cache-1.demandMshrMisses::total     16220064                       # number of demand (read+write) MSHR misses (Count)
board.cache_hierarchy.l1d-cache-1.overallMshrMisses::cache_hierarchy.l1d-cache-1.prefetcher      7051831                       # number of overall MSHR misses (Count)
board.cache_hierarchy.l1d-cache-1.overallMshrMisses::processor.switch1.core.data     16342096                       # number of overall MSHR misses (Count)
board.cache_hierarchy.l1d-cache-1.overallMshrMisses::total     23393927                       # number of overall MSHR misses (Count)
board.cache_hierarchy.l1d-cache-1.overallMshrUncacheable::processor.switch1.core.data        26617                       # number of overall MSHR uncacheable misses (Count)
board.cache_hierarchy.l1d-cache-1.overallMshrUncacheable::total        26617                       # number of overall MSHR uncacheable misses (Count)
board.cache_hierarchy.l1d-cache-1.demandMshrMissLatency::processor.switch1.core.data 158770968768                       # number of demand (read+write) MSHR miss ticks (Tick)
board.cache_hierarchy.l1d-cache-1.demandMshrMissLatency::total 158770968768                       # number of demand (read+write) MSHR miss ticks (Tick)
board.cache_hierarchy.l1d-cache-1.overallMshrMissLatency::cache_hierarchy.l1d-cache-1.prefetcher  90657111142                       # number of overall MSHR miss ticks (Tick)
board.cache_hierarchy.l1d-cache-1.overallMshrMissLatency::processor.switch1.core.data 159833206800                       # number of overall MSHR miss ticks (Tick)
board.cache_hierarchy.l1d-cache-1.overallMshrMissLatency::total 250490317942                       # number of overall MSHR miss ticks (Tick)
board.cache_hierarchy.l1d-cache-1.overallMshrUncacheableLatency::processor.switch1.core.data   1367367930                       # number of overall MSHR uncacheable ticks (Tick)
board.cache_hierarchy.l1d-cache-1.overallMshrUncacheableLatency::total   1367367930                       # number of overall MSHR uncacheable ticks (Tick)
board.cache_hierarchy.l1d-cache-1.demandMshrMissRate::processor.switch1.core.data     0.021377                       # mshr miss ratio for demand accesses (Ratio)
board.cache_hierarchy.l1d-cache-1.demandMshrMissRate::total     0.021377                       # mshr miss ratio for demand accesses (Ratio)
board.cache_hierarchy.l1d-cache-1.overallMshrMissRate::cache_hierarchy.l1d-cache-1.prefetcher          inf                       # mshr miss ratio for overall accesses (Ratio)
board.cache_hierarchy.l1d-cache-1.overallMshrMissRate::processor.switch1.core.data     0.021471                       # mshr miss ratio for overall accesses (Ratio)
board.cache_hierarchy.l1d-cache-1.overallMshrMissRate::total     0.030736                       # mshr miss ratio for overall accesses (Ratio)
board.cache_hierarchy.l1d-cache-1.demandAvgMshrMissLatency::processor.switch1.core.data  9788.553779                       # average overall mshr miss latency ((Tick/Count))
board.cache_hierarchy.l1d-cache-1.demandAvgMshrMissLatency::total  9788.553779                       # average overall mshr miss latency ((Tick/Count))
board.cache_hierarchy.l1d-cache-1.overallAvgMshrMissLatency::cache_hierarchy.l1d-cache-1.prefetcher 12855.825833                       # average overall mshr miss latency ((Tick/Count))
board.cache_hierarchy.l1d-cache-1.overallAvgMshrMissLatency::processor.switch1.core.data  9780.459422                       # average overall mshr miss latency ((Tick/Count))
board.cache_hierarchy.l1d-cache-1.overallAvgMshrMissLatency::total 10707.493357                       # average overall mshr miss latency ((Tick/Count))
board.cache_hierarchy.l1d-cache-1.overallAvgMshrUncacheableLatency::processor.switch1.core.data 51371.977683                       # average overall mshr uncacheable latency ((Tick/Count))
board.cache_hierarchy.l1d-cache-1.overallAvgMshrUncacheableLatency::total 51371.977683                       # average overall mshr uncacheable latency ((Tick/Count))
board.cache_hierarchy.l1d-cache-1.replacements     23515617                       # number of replacements (Count)
board.cache_hierarchy.l1d-cache-1.HardPFReq.mshrMisses::cache_hierarchy.l1d-cache-1.prefetcher      7051831                       # number of HardPFReq MSHR misses (Count)
board.cache_hierarchy.l1d-cache-1.HardPFReq.mshrMisses::total      7051831                       # number of HardPFReq MSHR misses (Count)
board.cache_hierarchy.l1d-cache-1.HardPFReq.mshrMissLatency::cache_hierarchy.l1d-cache-1.prefetcher  90657111142                       # number of HardPFReq MSHR miss ticks (Tick)
board.cache_hierarchy.l1d-cache-1.HardPFReq.mshrMissLatency::total  90657111142                       # number of HardPFReq MSHR miss ticks (Tick)
board.cache_hierarchy.l1d-cache-1.HardPFReq.mshrMissRate::cache_hierarchy.l1d-cache-1.prefetcher          inf                       # mshr miss rate for HardPFReq accesses (Ratio)
board.cache_hierarchy.l1d-cache-1.HardPFReq.mshrMissRate::total          inf                       # mshr miss rate for HardPFReq accesses (Ratio)
board.cache_hierarchy.l1d-cache-1.HardPFReq.avgMshrMissLatency::cache_hierarchy.l1d-cache-1.prefetcher 12855.825833                       # average HardPFReq mshr miss latency ((Tick/Count))
board.cache_hierarchy.l1d-cache-1.HardPFReq.avgMshrMissLatency::total 12855.825833                       # average HardPFReq mshr miss latency ((Tick/Count))
board.cache_hierarchy.l1d-cache-1.LockedRMWReadReq.hits::processor.switch1.core.data      2065215                       # number of LockedRMWReadReq hits (Count)
board.cache_hierarchy.l1d-cache-1.LockedRMWReadReq.hits::total      2065215                       # number of LockedRMWReadReq hits (Count)
board.cache_hierarchy.l1d-cache-1.LockedRMWReadReq.misses::processor.switch1.core.data       224371                       # number of LockedRMWReadReq misses (Count)
board.cache_hierarchy.l1d-cache-1.LockedRMWReadReq.misses::total       224371                       # number of LockedRMWReadReq misses (Count)
board.cache_hierarchy.l1d-cache-1.LockedRMWReadReq.missLatency::processor.switch1.core.data   2306957400                       # number of LockedRMWReadReq miss ticks (Tick)
board.cache_hierarchy.l1d-cache-1.LockedRMWReadReq.missLatency::total   2306957400                       # number of LockedRMWReadReq miss ticks (Tick)
board.cache_hierarchy.l1d-cache-1.LockedRMWReadReq.accesses::processor.switch1.core.data      2289586                       # number of LockedRMWReadReq accesses(hits+misses) (Count)
board.cache_hierarchy.l1d-cache-1.LockedRMWReadReq.accesses::total      2289586                       # number of LockedRMWReadReq accesses(hits+misses) (Count)
board.cache_hierarchy.l1d-cache-1.LockedRMWReadReq.missRate::processor.switch1.core.data     0.097996                       # miss rate for LockedRMWReadReq accesses (Ratio)
board.cache_hierarchy.l1d-cache-1.LockedRMWReadReq.missRate::total     0.097996                       # miss rate for LockedRMWReadReq accesses (Ratio)
board.cache_hierarchy.l1d-cache-1.LockedRMWReadReq.avgMissLatency::processor.switch1.core.data 10281.887588                       # average LockedRMWReadReq miss latency ((Tick/Count))
board.cache_hierarchy.l1d-cache-1.LockedRMWReadReq.avgMissLatency::total 10281.887588                       # average LockedRMWReadReq miss latency ((Tick/Count))
board.cache_hierarchy.l1d-cache-1.LockedRMWReadReq.mshrMisses::processor.switch1.core.data       224371                       # number of LockedRMWReadReq MSHR misses (Count)
board.cache_hierarchy.l1d-cache-1.LockedRMWReadReq.mshrMisses::total       224371                       # number of LockedRMWReadReq MSHR misses (Count)
board.cache_hierarchy.l1d-cache-1.LockedRMWReadReq.mshrMissLatency::processor.switch1.core.data   5226915852                       # number of LockedRMWReadReq MSHR miss ticks (Tick)
board.cache_hierarchy.l1d-cache-1.LockedRMWReadReq.mshrMissLatency::total   5226915852                       # number of LockedRMWReadReq MSHR miss ticks (Tick)
board.cache_hierarchy.l1d-cache-1.LockedRMWReadReq.mshrMissRate::processor.switch1.core.data     0.097996                       # mshr miss rate for LockedRMWReadReq accesses (Ratio)
board.cache_hierarchy.l1d-cache-1.LockedRMWReadReq.mshrMissRate::total     0.097996                       # mshr miss rate for LockedRMWReadReq accesses (Ratio)
board.cache_hierarchy.l1d-cache-1.LockedRMWReadReq.avgMshrMissLatency::processor.switch1.core.data 23295.861996                       # average LockedRMWReadReq mshr miss latency ((Tick/Count))
board.cache_hierarchy.l1d-cache-1.LockedRMWReadReq.avgMshrMissLatency::total 23295.861996                       # average LockedRMWReadReq mshr miss latency ((Tick/Count))
board.cache_hierarchy.l1d-cache-1.LockedRMWWriteReq.hits::processor.switch1.core.data      2289586                       # number of LockedRMWWriteReq hits (Count)
board.cache_hierarchy.l1d-cache-1.LockedRMWWriteReq.hits::total      2289586                       # number of LockedRMWWriteReq hits (Count)
board.cache_hierarchy.l1d-cache-1.LockedRMWWriteReq.accesses::processor.switch1.core.data      2289586                       # number of LockedRMWWriteReq accesses(hits+misses) (Count)
board.cache_hierarchy.l1d-cache-1.LockedRMWWriteReq.accesses::total      2289586                       # number of LockedRMWWriteReq accesses(hits+misses) (Count)
board.cache_hierarchy.l1d-cache-1.ReadReq.hits::processor.switch1.core.data    440814662                       # number of ReadReq hits (Count)
board.cache_hierarchy.l1d-cache-1.ReadReq.hits::total    440814662                       # number of ReadReq hits (Count)
board.cache_hierarchy.l1d-cache-1.ReadReq.misses::processor.switch1.core.data     11491259                       # number of ReadReq misses (Count)
board.cache_hierarchy.l1d-cache-1.ReadReq.misses::total     11491259                       # number of ReadReq misses (Count)
board.cache_hierarchy.l1d-cache-1.ReadReq.missLatency::processor.switch1.core.data 106797804624                       # number of ReadReq miss ticks (Tick)
board.cache_hierarchy.l1d-cache-1.ReadReq.missLatency::total 106797804624                       # number of ReadReq miss ticks (Tick)
board.cache_hierarchy.l1d-cache-1.ReadReq.accesses::processor.switch1.core.data    452305921                       # number of ReadReq accesses(hits+misses) (Count)
board.cache_hierarchy.l1d-cache-1.ReadReq.accesses::total    452305921                       # number of ReadReq accesses(hits+misses) (Count)
board.cache_hierarchy.l1d-cache-1.ReadReq.missRate::processor.switch1.core.data     0.025406                       # miss rate for ReadReq accesses (Ratio)
board.cache_hierarchy.l1d-cache-1.ReadReq.missRate::total     0.025406                       # miss rate for ReadReq accesses (Ratio)
board.cache_hierarchy.l1d-cache-1.ReadReq.avgMissLatency::processor.switch1.core.data  9293.829738                       # average ReadReq miss latency ((Tick/Count))
board.cache_hierarchy.l1d-cache-1.ReadReq.avgMissLatency::total  9293.829738                       # average ReadReq miss latency ((Tick/Count))
board.cache_hierarchy.l1d-cache-1.ReadReq.mshrHits::processor.switch1.core.data       157382                       # number of ReadReq MSHR hits (Count)
board.cache_hierarchy.l1d-cache-1.ReadReq.mshrHits::total       157382                       # number of ReadReq MSHR hits (Count)
board.cache_hierarchy.l1d-cache-1.ReadReq.mshrMisses::processor.switch1.core.data     11333877                       # number of ReadReq MSHR misses (Count)
board.cache_hierarchy.l1d-cache-1.ReadReq.mshrMisses::total     11333877                       # number of ReadReq MSHR misses (Count)
board.cache_hierarchy.l1d-cache-1.ReadReq.mshrUncacheable::processor.switch1.core.data         9747                       # number of ReadReq MSHR uncacheable (Count)
board.cache_hierarchy.l1d-cache-1.ReadReq.mshrUncacheable::total         9747                       # number of ReadReq MSHR uncacheable (Count)
board.cache_hierarchy.l1d-cache-1.ReadReq.mshrMissLatency::processor.switch1.core.data 101354659218                       # number of ReadReq MSHR miss ticks (Tick)
board.cache_hierarchy.l1d-cache-1.ReadReq.mshrMissLatency::total 101354659218                       # number of ReadReq MSHR miss ticks (Tick)
board.cache_hierarchy.l1d-cache-1.ReadReq.mshrUncacheableLatency::processor.switch1.core.data   1367367930                       # number of ReadReq MSHR uncacheable ticks (Tick)
board.cache_hierarchy.l1d-cache-1.ReadReq.mshrUncacheableLatency::total   1367367930                       # number of ReadReq MSHR uncacheable ticks (Tick)
board.cache_hierarchy.l1d-cache-1.ReadReq.mshrMissRate::processor.switch1.core.data     0.025058                       # mshr miss rate for ReadReq accesses (Ratio)
board.cache_hierarchy.l1d-cache-1.ReadReq.mshrMissRate::total     0.025058                       # mshr miss rate for ReadReq accesses (Ratio)
board.cache_hierarchy.l1d-cache-1.ReadReq.avgMshrMissLatency::processor.switch1.core.data  8942.629183                       # average ReadReq mshr miss latency ((Tick/Count))
board.cache_hierarchy.l1d-cache-1.ReadReq.avgMshrMissLatency::total  8942.629183                       # average ReadReq mshr miss latency ((Tick/Count))
board.cache_hierarchy.l1d-cache-1.ReadReq.avgMshrUncacheableLatency::processor.switch1.core.data 140286.029548                       # average ReadReq mshr uncacheable latency ((Tick/Count))
board.cache_hierarchy.l1d-cache-1.ReadReq.avgMshrUncacheableLatency::total 140286.029548                       # average ReadReq mshr uncacheable latency ((Tick/Count))
board.cache_hierarchy.l1d-cache-1.SoftPFReq.hits::processor.switch1.core.data      2238565                       # number of SoftPFReq hits (Count)
board.cache_hierarchy.l1d-cache-1.SoftPFReq.hits::total      2238565                       # number of SoftPFReq hits (Count)
board.cache_hierarchy.l1d-cache-1.SoftPFReq.misses::processor.switch1.core.data       122050                       # number of SoftPFReq misses (Count)
board.cache_hierarchy.l1d-cache-1.SoftPFReq.misses::total       122050                       # number of SoftPFReq misses (Count)
board.cache_hierarchy.l1d-cache-1.SoftPFReq.accesses::processor.switch1.core.data      2360615                       # number of SoftPFReq accesses(hits+misses) (Count)
board.cache_hierarchy.l1d-cache-1.SoftPFReq.accesses::total      2360615                       # number of SoftPFReq accesses(hits+misses) (Count)
board.cache_hierarchy.l1d-cache-1.SoftPFReq.missRate::processor.switch1.core.data     0.051703                       # miss rate for SoftPFReq accesses (Ratio)
board.cache_hierarchy.l1d-cache-1.SoftPFReq.missRate::total     0.051703                       # miss rate for SoftPFReq accesses (Ratio)
board.cache_hierarchy.l1d-cache-1.SoftPFReq.mshrMisses::processor.switch1.core.data       122032                       # number of SoftPFReq MSHR misses (Count)
board.cache_hierarchy.l1d-cache-1.SoftPFReq.mshrMisses::total       122032                       # number of SoftPFReq MSHR misses (Count)
board.cache_hierarchy.l1d-cache-1.SoftPFReq.mshrMissLatency::processor.switch1.core.data   1062238032                       # number of SoftPFReq MSHR miss ticks (Tick)
board.cache_hierarchy.l1d-cache-1.SoftPFReq.mshrMissLatency::total   1062238032                       # number of SoftPFReq MSHR miss ticks (Tick)
board.cache_hierarchy.l1d-cache-1.SoftPFReq.mshrMissRate::processor.switch1.core.data     0.051695                       # mshr miss rate for SoftPFReq accesses (Ratio)
board.cache_hierarchy.l1d-cache-1.SoftPFReq.mshrMissRate::total     0.051695                       # mshr miss rate for SoftPFReq accesses (Ratio)
board.cache_hierarchy.l1d-cache-1.SoftPFReq.avgMshrMissLatency::processor.switch1.core.data  8704.585945                       # average SoftPFReq mshr miss latency ((Tick/Count))
board.cache_hierarchy.l1d-cache-1.SoftPFReq.avgMshrMissLatency::total  8704.585945                       # average SoftPFReq mshr miss latency ((Tick/Count))
board.cache_hierarchy.l1d-cache-1.WriteReq.hits::processor.switch1.core.data    301241957                       # number of WriteReq hits (Count)
board.cache_hierarchy.l1d-cache-1.WriteReq.hits::total    301241957                       # number of WriteReq hits (Count)
board.cache_hierarchy.l1d-cache-1.WriteReq.misses::processor.switch1.core.data      5209767                       # number of WriteReq misses (Count)
board.cache_hierarchy.l1d-cache-1.WriteReq.misses::total      5209767                       # number of WriteReq misses (Count)
board.cache_hierarchy.l1d-cache-1.WriteReq.missLatency::processor.switch1.core.data  63134927208                       # number of WriteReq miss ticks (Tick)
board.cache_hierarchy.l1d-cache-1.WriteReq.missLatency::total  63134927208                       # number of WriteReq miss ticks (Tick)
board.cache_hierarchy.l1d-cache-1.WriteReq.accesses::processor.switch1.core.data    306451724                       # number of WriteReq accesses(hits+misses) (Count)
board.cache_hierarchy.l1d-cache-1.WriteReq.accesses::total    306451724                       # number of WriteReq accesses(hits+misses) (Count)
board.cache_hierarchy.l1d-cache-1.WriteReq.missRate::processor.switch1.core.data     0.017000                       # miss rate for WriteReq accesses (Ratio)
board.cache_hierarchy.l1d-cache-1.WriteReq.missRate::total     0.017000                       # miss rate for WriteReq accesses (Ratio)
board.cache_hierarchy.l1d-cache-1.WriteReq.avgMissLatency::processor.switch1.core.data 12118.570218                       # average WriteReq miss latency ((Tick/Count))
board.cache_hierarchy.l1d-cache-1.WriteReq.avgMissLatency::total 12118.570218                       # average WriteReq miss latency ((Tick/Count))
board.cache_hierarchy.l1d-cache-1.WriteReq.mshrHits::processor.switch1.core.data       323580                       # number of WriteReq MSHR hits (Count)
board.cache_hierarchy.l1d-cache-1.WriteReq.mshrHits::total       323580                       # number of WriteReq MSHR hits (Count)
board.cache_hierarchy.l1d-cache-1.WriteReq.mshrMisses::processor.switch1.core.data      4886187                       # number of WriteReq MSHR misses (Count)
board.cache_hierarchy.l1d-cache-1.WriteReq.mshrMisses::total      4886187                       # number of WriteReq MSHR misses (Count)
board.cache_hierarchy.l1d-cache-1.WriteReq.mshrUncacheable::processor.switch1.core.data        16870                       # number of WriteReq MSHR uncacheable (Count)
board.cache_hierarchy.l1d-cache-1.WriteReq.mshrUncacheable::total        16870                       # number of WriteReq MSHR uncacheable (Count)
board.cache_hierarchy.l1d-cache-1.WriteReq.mshrMissLatency::processor.switch1.core.data  57416309550                       # number of WriteReq MSHR miss ticks (Tick)
board.cache_hierarchy.l1d-cache-1.WriteReq.mshrMissLatency::total  57416309550                       # number of WriteReq MSHR miss ticks (Tick)
board.cache_hierarchy.l1d-cache-1.WriteReq.mshrMissRate::processor.switch1.core.data     0.015944                       # mshr miss rate for WriteReq accesses (Ratio)
board.cache_hierarchy.l1d-cache-1.WriteReq.mshrMissRate::total     0.015944                       # mshr miss rate for WriteReq accesses (Ratio)
board.cache_hierarchy.l1d-cache-1.WriteReq.avgMshrMissLatency::processor.switch1.core.data 11750.739288                       # average WriteReq mshr miss latency ((Tick/Count))
board.cache_hierarchy.l1d-cache-1.WriteReq.avgMshrMissLatency::total 11750.739288                       # average WriteReq mshr miss latency ((Tick/Count))
board.cache_hierarchy.l1d-cache-1.power_state.pwrStateResidencyTicks::UNDEFINED 28245517340203                       # Cumulative time (in ticks) in various power states (Tick)
board.cache_hierarchy.l1d-cache-1.prefetcher.demandMshrMisses     16220064                       # demands not covered by prefetchs (Count)
board.cache_hierarchy.l1d-cache-1.prefetcher.pfIssued     24197456                       # number of hwpf issued (Count)
board.cache_hierarchy.l1d-cache-1.prefetcher.pfUnused       689837                       # number of HardPF blocks evicted w/o reference (Count)
board.cache_hierarchy.l1d-cache-1.prefetcher.pfUseful      5829523                       # number of useful prefetch (Count)
board.cache_hierarchy.l1d-cache-1.prefetcher.pfUsefulButMiss         3776                       # number of hit on prefetch but cache block is not in an usable state (Count)
board.cache_hierarchy.l1d-cache-1.prefetcher.accuracy     0.240915                       # accuracy of the prefetcher (Count)
board.cache_hierarchy.l1d-cache-1.prefetcher.coverage     0.264382                       # coverage brought by this prefetcher (Count)
board.cache_hierarchy.l1d-cache-1.prefetcher.pfHitInCache     13607850                       # number of prefetches hitting in cache (Count)
board.cache_hierarchy.l1d-cache-1.prefetcher.pfHitInMSHR      3537746                       # number of prefetches hitting in a MSHR (Count)
board.cache_hierarchy.l1d-cache-1.prefetcher.pfHitInWB           29                       # number of prefetches hit in the Write Buffer (Count)
board.cache_hierarchy.l1d-cache-1.prefetcher.pfLate     17145625                       # number of late prefetches (hitting in cache, MSHR or WB) (Count)
board.cache_hierarchy.l1d-cache-1.prefetcher.pfIdentified     24199469                       # number of prefetch candidates identified (Count)
board.cache_hierarchy.l1d-cache-1.prefetcher.pfBufferHit         1509                       # number of redundant prefetches already in prefetch queue (Count)
board.cache_hierarchy.l1d-cache-1.prefetcher.pfInCache            0                       # number of redundant prefetches already in cache/mshr dropped (Count)
board.cache_hierarchy.l1d-cache-1.prefetcher.pfRemovedDemand          493                       # number of prefetches dropped due to a demand for the same address (Count)
board.cache_hierarchy.l1d-cache-1.prefetcher.pfRemovedFull            0                       # number of prefetches dropped due to prefetch queue size (Count)
board.cache_hierarchy.l1d-cache-1.prefetcher.pfSpanPage      1413591                       # number of prefetches that crossed the page (Count)
board.cache_hierarchy.l1d-cache-1.prefetcher.pfUsefulSpanPage      1144035                       # number of prefetches that is useful and crossed the page (Count)
board.cache_hierarchy.l1d-cache-1.prefetcher.power_state.pwrStateResidencyTicks::UNDEFINED 28245517340203                       # Cumulative time (in ticks) in various power states (Tick)
board.cache_hierarchy.l1d-cache-1.tags.tagsInUse   505.169873                       # Average ticks per tags in use ((Tick/Count))
board.cache_hierarchy.l1d-cache-1.tags.totalRefs    772221826                       # Total number of references to valid blocks. (Count)
board.cache_hierarchy.l1d-cache-1.tags.sampledRefs     23584272                       # Sample count of references to valid blocks. (Count)
board.cache_hierarchy.l1d-cache-1.tags.avgRefs    32.743085                       # Average number of references to valid blocks. ((Count/Count))
board.cache_hierarchy.l1d-cache-1.tags.warmupTick 20986448017194                       # The tick when the warmup percentage was hit. (Tick)
board.cache_hierarchy.l1d-cache-1.tags.occupancies::cache_hierarchy.l1d-cache-1.prefetcher    60.697764                       # Average occupied blocks per tick, per requestor ((Count/Tick))
board.cache_hierarchy.l1d-cache-1.tags.occupancies::processor.switch1.core.data   444.472109                       # Average occupied blocks per tick, per requestor ((Count/Tick))
board.cache_hierarchy.l1d-cache-1.tags.avgOccs::cache_hierarchy.l1d-cache-1.prefetcher     0.118550                       # Average percentage of cache occupancy ((Ratio/Tick))
board.cache_hierarchy.l1d-cache-1.tags.avgOccs::processor.switch1.core.data     0.868110                       # Average percentage of cache occupancy ((Ratio/Tick))
board.cache_hierarchy.l1d-cache-1.tags.avgOccs::total     0.986660                       # Average percentage of cache occupancy ((Ratio/Tick))
board.cache_hierarchy.l1d-cache-1.tags.occupanciesTaskId::1022           31                       # Occupied blocks per task id (Count)
board.cache_hierarchy.l1d-cache-1.tags.occupanciesTaskId::1024          445                       # Occupied blocks per task id (Count)
board.cache_hierarchy.l1d-cache-1.tags.ageTaskId_1022::2           31                       # Occupied blocks per task id, per block age (Count)
board.cache_hierarchy.l1d-cache-1.tags.ageTaskId_1024::2          443                       # Occupied blocks per task id, per block age (Count)
board.cache_hierarchy.l1d-cache-1.tags.ageTaskId_1024::3            2                       # Occupied blocks per task id, per block age (Count)
board.cache_hierarchy.l1d-cache-1.tags.ratioOccsTaskId::1022     0.060547                       # Ratio of occupied blocks and all blocks, per task id (Ratio)
[...]
board.processor.switch1.core.commitStats0.committedInstType::SimdFloatAdd            0      0.00%     81.17% # Class of committed instruction. (Count)
board.processor.switch1.core.commitStats0.committedInstType::SimdFloatAlu            0      0.00%     81.17% # Class of committed instruction. (Count)
board.processor.switch1.core.commitStats0.committedInstType::SimdFloatCmp            0      0.00%     81.17% # Class of committed instruction. (Count)
board.processor.switch1.core.commitStats0.committedInstType::SimdFloatCvt            0      0.00%     81.17% # Class of committed instruction. (Count)
board.processor.switch1.core.commitStats0.committedInstType::SimdFloatDiv            0      0.00%     81.17% # Class of committed instruction. (Count)
board.processor.switch1.core.commitStats0.committedInstType::SimdFloatMisc            0      0.00%     81.17% # Class of committed instruction. (Count)
board.processor.switch1.core.commitStats0.committedInstType::SimdFloatMult            0      0.00%     81.17% # Class of committed instruction. (Count)
board.processor.switch1.core.commitStats0.committedInstType::SimdFloatMultAcc            0      0.00%     81.17% # Class of committed instruction. (Count)
board.processor.switch1.core.commitStats0.committedInstType::SimdFloatMatMultAcc            0      0.00%     81.17% # Class of committed instruction. (Count)
board.processor.switch1.core.commitStats0.committedInstType::SimdFloatSqrt            0      0.00%     81.17% # Class of committed instruction. (Count)
board.processor.switch1.core.commitStats0.committedInstType::SimdReduceAdd            0      0.00%     81.17% # Class of committed instruction. (Count)
board.processor.switch1.core.commitStats0.committedInstType::SimdReduceAlu            0      0.00%     81.17% # Class of committed instruction. (Count)
board.processor.switch1.core.commitStats0.committedInstType::SimdReduceCmp            0      0.00%     81.17% # Class of committed instruction. (Count)
board.processor.switch1.core.commitStats0.committedInstType::SimdFloatReduceAdd            0      0.00%     81.17% # Class of committed instruction. (Count)
board.processor.switch1.core.commitStats0.committedInstType::SimdFloatReduceCmp            0      0.00%     81.17% # Class of committed instruction. (Count)
board.processor.switch1.core.commitStats0.committedInstType::SimdAes            0      0.00%     81.17% # Class of committed instruction. (Count)
board.processor.switch1.core.commitStats0.committedInstType::SimdAesMix            0      0.00%     81.17% # Class of committed instruction. (Count)
board.processor.switch1.core.commitStats0.committedInstType::SimdSha1Hash            0      0.00%     81.17% # Class of committed instruction. (Count)
board.processor.switch1.core.commitStats0.committedInstType::SimdSha1Hash2            0      0.00%     81.17% # Class of committed instruction. (Count)
board.processor.switch1.core.commitStats0.committedInstType::SimdSha256Hash            0      0.00%     81.17% # Class of committed instruction. (Count)
board.processor.switch1.core.commitStats0.committedInstType::SimdSha256Hash2            0      0.00%     81.17% # Class of committed instruction. (Count)
board.processor.switch1.core.commitStats0.committedInstType::SimdShaSigma2            0      0.00%     81.17% # Class of committed instruction. (Count)
board.processor.switch1.core.commitStats0.committedInstType::SimdShaSigma3            0      0.00%     81.17% # Class of committed instruction. (Count)
board.processor.switch1.core.commitStats0.committedInstType::SimdSha3            0      0.00%     81.17% # Class of committed instruction. (Count)
board.processor.switch1.core.commitStats0.committedInstType::SimdSm4e            0      0.00%     81.17% # Class of committed instruction. (Count)
board.processor.switch1.core.commitStats0.committedInstType::SimdCrc            0      0.00%     81.17% # Class of committed instruction. (Count)
board.processor.switch1.core.commitStats0.committedInstType::SimdPredAlu            0      0.00%     81.17% # Class of committed instruction. (Count)
board.processor.switch1.core.commitStats0.committedInstType::SimdDotProd            0      0.00%     81.17% # Class of committed instruction. (Count)
board.processor.switch1.core.commitStats0.committedInstType::Matrix            0      0.00%     81.17% # Class of committed instruction. (Count)
board.processor.switch1.core.commitStats0.committedInstType::MatrixMov            0      0.00%     81.17% # Class of committed instruction. (Count)
board.processor.switch1.core.commitStats0.committedInstType::MatrixOP            0      0.00%     81.17% # Class of committed instruction. (Count)
board.processor.switch1.core.commitStats0.committedInstType::MemRead       513075     11.35%     92.52% # Class of committed instruction. (Count)
board.processor.switch1.core.commitStats0.committedInstType::MemWrite       327967      7.25%     99.77% # Class of committed instruction. (Count)
board.processor.switch1.core.commitStats0.committedInstType::FloatMemRead         4238      0.09%     99.86% # Class of committed instruction. (Count)
board.processor.switch1.core.commitStats0.committedInstType::FloatMemWrite         6222      0.14%    100.00% # Class of committed instruction. (Count)
board.processor.switch1.core.commitStats0.committedInstType::InstPrefetch            0      0.00%    100.00% # Class of committed instruction. (Count)
board.processor.switch1.core.commitStats0.committedInstType::SimdUnitStrideLoad            0      0.00%    100.00% # Class of committed instruction. (Count)
board.processor.switch1.core.commitStats0.committedInstType::SimdUnitStrideStore            0      0.00%    100.00% # Class of committed instruction. (Count)
board.processor.switch1.core.commitStats0.committedInstType::SimdUnitStrideMaskLoad            0      0.00%    100.00% # Class of committed instruction. (Count)
board.processor.switch1.core.commitStats0.committedInstType::SimdUnitStrideMaskStore            0      0.00%    100.00% # Class of committed instruction. (Count)
board.processor.switch1.core.commitStats0.committedInstType::SimdStridedLoad            0      0.00%    100.00% # Class of committed instruction. (Count)
board.processor.switch1.core.commitStats0.committedInstType::SimdStridedStore            0      0.00%    100.00% # Class of committed instruction. (Count)
board.processor.switch1.core.commitStats0.committedInstType::SimdIndexedLoad            0      0.00%    100.00% # Class of committed instruction. (Count)
board.processor.switch1.core.commitStats0.committedInstType::SimdIndexedStore            0      0.00%    100.00% # Class of committed instruction. (Count)
board.processor.switch1.core.commitStats0.committedInstType::SimdWholeRegisterLoad            0      0.00%    100.00% # Class of committed instruction. (Count)
board.processor.switch1.core.commitStats0.committedInstType::SimdWholeRegisterStore            0      0.00%    100.00% # Class of committed instruction. (Count)
board.processor.switch1.core.commitStats0.committedInstType::SimdUnitStrideFaultOnlyFirstLoad            0      0.00%    100.00% # Class of committed instruction. (Count)
board.processor.switch1.core.commitStats0.committedInstType::SimdUnitStrideSegmentedLoad            0      0.00%    100.00% # Class of committed instruction. (Count)
board.processor.switch1.core.commitStats0.committedInstType::SimdUnitStrideSegmentedStore            0      0.00%    100.00% # Class of committed instruction. (Count)
board.processor.switch1.core.commitStats0.committedInstType::SimdUnitStrideSegmentedFaultOnlyFirstLoad            0      0.00%    100.00% # Class of committed instruction. (Count)
board.processor.switch1.core.commitStats0.committedInstType::SimdStrideSegmentedLoad            0      0.00%    100.00% # Class of committed instruction. (Count)
board.processor.switch1.core.commitStats0.committedInstType::SimdStrideSegmentedStore            0      0.00%    100.00% # Class of committed instruction. (Count)
board.processor.switch1.core.commitStats0.committedInstType::SimdExt            0      0.00%    100.00% # Class of committed instruction. (Count)
board.processor.switch1.core.commitStats0.committedInstType::SimdFloatExt            0      0.00%    100.00% # Class of committed instruction. (Count)
board.processor.switch1.core.commitStats0.committedInstType::SimdConfig            0      0.00%    100.00% # Class of committed instruction. (Count)
board.processor.switch1.core.commitStats0.committedInstType::SimdBf16Add            0      0.00%    100.00% # Class of committed instruction. (Count)
board.processor.switch1.core.commitStats0.committedInstType::SimdBf16Cmp            0      0.00%    100.00% # Class of committed instruction. (Count)
board.processor.switch1.core.commitStats0.committedInstType::SimdBf16Cvt            0      0.00%    100.00% # Class of committed instruction. (Count)
board.processor.switch1.core.commitStats0.committedInstType::SimdBf16DotProd            0      0.00%    100.00% # Class of committed instruction. (Count)
board.processor.switch1.core.commitStats0.committedInstType::SimdBf16MatMultAcc            0      0.00%    100.00% # Class of committed instruction. (Count)
board.processor.switch1.core.commitStats0.committedInstType::SimdBf16Mult            0      0.00%    100.00% # Class of committed instruction. (Count)
board.processor.switch1.core.commitStats0.committedInstType::SimdBf16MultAcc            0      0.00%    100.00% # Class of committed instruction. (Count)
board.processor.switch1.core.commitStats0.committedInstType::Bf16Cvt            0      0.00%    100.00% # Class of committed instruction. (Count)
board.processor.switch1.core.commitStats0.committedInstType::System            0      0.00%    100.00% # Class of committed instruction. (Count)
board.processor.switch1.core.commitStats0.committedInstType::total      4522087                       # Class of committed instruction. (Count)
board.processor.switch1.core.commitStats0.committedControl::IsControl       510507                       # Class of control type instructions committed (Count)
board.processor.switch1.core.commitStats0.committedControl::IsDirectControl       444416                       # Class of control type instructions committed (Count)
board.processor.switch1.core.commitStats0.committedControl::IsIndirectControl        65772                       # Class of control type instructions committed (Count)
board.processor.switch1.core.commitStats0.committedControl::IsCondControl       358318                       # Class of control type instructions committed (Count)
board.processor.switch1.core.commitStats0.committedControl::IsUncondControl       152162                       # Class of control type instructions committed (Count)
board.processor.switch1.core.commitStats0.committedControl::IsCall        53281                       # Class of control type instructions committed (Count)
board.processor.switch1.core.commitStats0.committedControl::IsReturn        53141                       # Class of control type instructions committed (Count)
board.processor.switch1.core.commitStats0.functionCalls        53281                       # Number of function calls committed (Count)
board.processor.switch1.core.commitStats0.numCallsReturns       106422                       # Number of function calls and returns committed (Count)
board.processor.switch1.core.exec_context.thread_0.numMatAluAccesses            0                       # Number of matrix alu accesses (Count)
board.processor.switch1.core.exec_context.thread_0.numMatInsts            0                       # Number of matrix instructions (Count)
board.processor.switch1.core.exec_context.thread_0.numIdleCycles 2201610.572460                       # Number of idle cycles (Cycle)
board.processor.switch1.core.exec_context.thread_0.numBusyCycles 6859225.427540                       # Number of busy cycles (Cycle)
board.processor.switch1.core.exec_context.thread_0.notIdleFraction     0.757019                       # Percentage of non-idle cycles (Ratio)
board.processor.switch1.core.exec_context.thread_0.idleFraction     0.242981                       # Percentage of idle cycles (Ratio)
board.processor.switch1.core.executeStats0.numInsts      2337167                       # Number of executed instructions (Count)
board.processor.switch1.core.executeStats0.numNop            0                       # Number of nop insts executed (Count)
board.processor.switch1.core.executeStats0.numBranches       510507                       # Number of branches executed (Count)
board.processor.switch1.core.executeStats0.numLoadInsts       517317                       # Number of load instructions executed (Count)
board.processor.switch1.core.executeStats0.numStoreInsts       334189                       # Number of stores executed (Count)
board.processor.switch1.core.executeStats0.instRate     0.257942                       # Inst execution rate ((Count/Cycle))
board.processor.switch1.core.executeStats0.numCCRegReads      2173581                       # Number of times the CC registers were read (Count)
board.processor.switch1.core.executeStats0.numCCRegWrites      1561882                       # Number of times the CC registers were written (Count)
board.processor.switch1.core.executeStats0.numFpAluAccesses        24019                       # Number of float alu accesses (Count)
board.processor.switch1.core.executeStats0.numFpRegReads        32593                       # Number of times the floating registers were read (Count)
board.processor.switch1.core.executeStats0.numFpRegWrites        15614                       # Number of times the floating registers were written (Count)
board.processor.switch1.core.executeStats0.numIntAluAccesses      4396608                       # Number of integer alu accesses (Count)
board.processor.switch1.core.executeStats0.numIntRegReads      5100520                       # Number of times the integer registers were read (Count)
board.processor.switch1.core.executeStats0.numIntRegWrites      3266512                       # Number of times the integer registers were written (Count)
board.processor.switch1.core.executeStats0.numMemRefs       851506                       # Number of memory refs (Count)
board.processor.switch1.core.executeStats0.numMiscRegReads      1785472                       # Number of times the Misc registers were read (Count)
board.processor.switch1.core.executeStats0.numMiscRegWrites         7023                       # Number of times the Misc registers were written (Count)
board.processor.switch1.core.executeStats0.numVecAluAccesses            0                       # Number of vector alu accesses (Count)
board.processor.switch1.core.executeStats0.numDiscardedOps            0                       # Number of ops (including micro ops) which were discarded before commit (Count)
board.processor.switch1.core.fetchStats0.numInsts      2337197                       # Number of instructions fetched (thread level) (Count)
board.processor.switch1.core.fetchStats0.numOps      4522132                       # Number of ops (including micro ops) fetched (thread level) (Count)
board.processor.switch1.core.fetchStats0.fetchRate     0.257945                       # Number of inst fetches per cycle ((Count/Cycle))
board.processor.switch1.core.fetchStats0.numBranches       510507                       # Number of branches fetched (Count)
board.processor.switch1.core.fetchStats0.branchRate     0.056342                       # Number of branch fetches per cycle (Ratio)
board.processor.switch1.core.fetchStats0.numFetchSuspends            0                       # Number of times Execute suspended instruction fetching (Count)
board.processor.switch1.core.mmu.dtb.rdAccesses       518418                       # TLB accesses on read requests (Count)
board.processor.switch1.core.mmu.dtb.wrAccesses       334371                       # TLB accesses on write requests (Count)
board.processor.switch1.core.mmu.dtb.exAccesses            0                       # TLB accesses on execute (instr) requests (Count)
board.processor.switch1.core.mmu.dtb.rdMisses         1015                       # TLB misses on read requests (Count)
board.processor.switch1.core.mmu.dtb.wrMisses          136                       # TLB misses on write requests (Count)
board.processor.switch1.core.mmu.dtb.exMisses            0                       # TLB misses on execute (instr) requests (Count)
board.processor.switch1.core.mmu.dtb.walker.power_state.pwrStateResidencyTicks::UNDEFINED   2913635781                       # Cumulative time (in ticks) in various power states (Tick)
board.processor.switch1.core.mmu.itb.rdAccesses            0                       # TLB accesses on read requests (Count)
board.processor.switch1.core.mmu.itb.wrAccesses            0                       # TLB accesses on write requests (Count)
board.processor.switch1.core.mmu.itb.exAccesses      3034840                       # TLB accesses on execute (instr) requests (Count)
board.processor.switch1.core.mmu.itb.rdMisses            0                       # TLB misses on read requests (Count)
board.processor.switch1.core.mmu.itb.wrMisses            0                       # TLB misses on write requests (Count)
board.processor.switch1.core.mmu.itb.exMisses          452                       # TLB misses on execute (instr) requests (Count)
board.processor.switch1.core.mmu.itb.walker.power_state.pwrStateResidencyTicks::UNDEFINED   2913635781                       # Cumulative time (in ticks) in various power states (Tick)
board.processor.switch1.core.power_state.numTransitions            4                       # Number of power state transitions (Count)
board.processor.switch1.core.power_state.ticksClkGated::samples            3                       # Distribution of time spent in the clock gated state (Tick)
board.processor.switch1.core.power_state.ticksClkGated::mean    235986000                       # Distribution of time spent in the clock gated state (Tick)
board.processor.switch1.core.power_state.ticksClkGated::stdev 119134903.066178                       # Distribution of time spent in the clock gated state (Tick)
board.processor.switch1.core.power_state.ticksClkGated::1000-5e+10            3    100.00%    100.00% # Distribution of time spent in the clock gated state (Tick)
board.processor.switch1.core.power_state.ticksClkGated::min_value    122295582                       # Distribution of time spent in the clock gated state (Tick)
board.processor.switch1.core.power_state.ticksClkGated::max_value    359905733                       # Distribution of time spent in the clock gated state (Tick)
board.processor.switch1.core.power_state.ticksClkGated::total            3                       # Distribution of time spent in the clock gated state (Tick)
board.processor.switch1.core.power_state.pwrStateResidencyTicks::ON   2205677781                       # Cumulative time (in ticks) in various power states (Tick)
board.processor.switch1.core.power_state.pwrStateResidencyTicks::CLK_GATED    707958000                       # Cumulative time (in ticks) in various power states (Tick)
board.processor.switch1.core.thread_0.numInsts      2337167                       # Number of Instructions committed (Count)
board.processor.switch1.core.thread_0.numOps      4522087                       # Number of Ops committed (Count)
board.processor.switch1.core.thread_0.numMemRefs       851506                       # Number of Memory References (Count)
board.workload.inst.arm                             0                       # number of arm instructions executed (Count)
board.workload.inst.quiesce                         0                       # number of quiesce instructions executed (Count)

---------- End Simulation Statistics   ----------
